%chk=apoCaM-CA-Ng.loop2.water4.frame1153.chk
%nprocshared=20
%mem=10GB
%nosave
#b3lyp/svp scf=(tight,noincore,xqc) Test 
#IOP(5/87=12) Density=Current Pop=(MK,readradii) iop(6/33=2) iop(6/42=6)

apoCaM-CA-Ng.loop2.water4.frame1153 

   -2  1 
C         90.82606       37.84155      103.69695
C         90.67027       38.88455      104.77930
O         89.52762       39.15920      105.11503
H         91.85252       37.63406      103.35695
H         90.38167       36.88610      104.04239
H         90.27198       38.18575      102.79791
N         91.70082       39.56369      105.36914
C         93.12488       39.37202      105.10128
C         93.65501       40.45166      104.18937
O         92.99795       41.46504      104.02131
C         93.94995       39.25557      106.40749
C         93.87003       40.41073      107.39361
O         94.50415       40.32764      108.43424
O         93.04690       41.47090      107.22410
H         91.42921       40.31009      106.02169
H         93.28796       38.42706      104.56111
H         95.01814       39.10670      106.13560
H         93.61264       38.34243      106.94475
N         94.82336       40.24569      103.50651
C         95.43192       41.16282      102.54386
C         96.38534       42.13126      103.19798
O         97.39784       42.44680      102.58702
C         94.43625       41.91937      101.64725
H         95.29019       39.33237      103.62056
H         96.03607       40.54088      101.84386
H         93.74661       41.21041      101.14442
H         93.85256       42.67302      102.21477
H         94.99036       42.48580      100.86820
N         96.12521       42.67096      104.42247
C         96.94301       43.73569      104.98729
C         96.69801       43.98716      106.46686
O         95.81563       43.38885      107.05943
C         96.70553       45.02415      104.16454
C         95.28539       45.57765      104.08894
O         94.19326       45.09017      104.73406
O         95.11706       46.55541      103.37957
H         95.31850       42.32501      104.94289
H         98.00927       43.42699      104.91815
H         97.01872       44.83105      103.11809
H         97.36879       45.82930      104.54412
N         97.49346       44.85737      107.15256
C         97.20047       45.24142      108.52254
C         96.11973       46.30751      108.56913
O         95.62131       46.59139      109.64857
H         98.29640       45.29971      106.68044
H         98.10675       45.66355      109.00601
H         96.90953       44.33963      109.10502
N         95.76077       46.99534      107.44366
C         94.76139       48.06081      107.41805
C         93.36044       47.49183      107.60302
O         93.21951       46.28685      107.76204
C         94.87149       48.83251      106.08090
C         96.25156       49.43120      105.91492
N         97.05787       49.05647      104.89365
O         96.64736       50.26036      106.72069
H         96.25803       46.79704      106.56536
H         94.97408       48.78494      108.23581
H         94.13886       49.66372      106.03709
H         94.64345       48.14216      105.24631
H         96.75342       48.35610      104.20457
H         97.99991       49.46322      104.79462
N         92.26842       48.31123      107.58134
C         90.90431       47.83424      107.77369
C         90.23145       48.56158      108.91401
O         90.84226       49.44964      109.49337
H         92.40128       49.32008      107.41772
H         90.89571       46.74555      107.98213
H         90.32099       48.02202      106.85369
N         88.97216       48.25587      109.33780
C         88.14364       47.16906      108.81707
C         87.36547       47.62400      107.59145
O         86.79587       48.70628      107.63143
C         87.16668       46.70169      109.92338
C         86.39639       45.44340      109.50959
O         87.90128       46.39944      111.08516
H         88.61789       48.78170      110.15360
H         88.77370       46.28122      108.59853
H         86.43608       47.52311      110.12648
H         87.47821       46.88308      111.84233
H         87.10701       44.61221      109.30575
H         85.71913       45.13170      110.33196
H         85.78559       45.62553      108.60211
N         87.22771       46.80919      106.50120
C         86.44813       47.18060      105.31290
C         85.19942       46.30988      105.16633
O         85.19472       45.20477      105.69094
C         87.31290       47.08518      104.01804
C         87.81083       45.63351      103.75543
C         88.47209       48.08931      104.09250
C         88.53740       45.45758      102.42301
H         87.65866       45.87447      106.54090
H         86.10871       48.22737      105.42607
H         86.67519       47.37675      103.15768
H         86.93838       44.94727      103.72532
H         88.48590       45.29477      104.56687
H         89.15581       47.83094      104.92152
H         89.05169       48.11022      103.14917
H         88.07637       49.11391      104.25817
H         87.87548       45.75337      101.58227
H         89.47292       46.04978      102.38939
H         88.81186       44.38827      102.29802
N         84.09586       46.69868      104.44853
C         83.85170       48.06516      103.97996
C         82.88823       48.12167      102.78806
O         82.42295       47.09161      102.32057
C         83.31350       48.91015      105.16850
C         81.97620       48.43518      105.67679
O         81.84374       47.20394      106.20618
O         81.00775       49.17703      105.63476
H         83.30733       46.03348      104.41043
H         84.79533       48.52222      103.62358
H         83.22643       49.97380      104.86621
H         84.02973       48.88614      106.01465
N         82.52146       49.33685      102.28140
C         81.52593       49.54746      101.23362
C         82.05166       50.55923      100.21004
O         82.55052       51.58702      100.65185
C         80.27314       50.17092      101.88826
C         79.17798       50.35615      100.86667
C         78.89605       51.63285      100.35321
C         78.45809       49.24674      100.38976
C         77.92167       51.79401       99.36473
C         77.47462       49.41491       99.40995
C         77.21122       50.68670       98.89366
H         82.91094       50.18198      102.72283
H         81.21259       48.58882      100.77600
H         80.55990       51.15015      102.33318
H         79.89038       49.53922      102.71966
H         79.44957       52.49772      100.69703
H         78.66293       48.25432      100.77232
H         77.72327       52.77720       98.95866
H         76.92407       48.55813       99.04371
H         76.45912       50.81407       98.12618
N         81.89117       50.44237       98.85192
C         81.24336       49.35775       98.12592
C         81.93679       48.03806       98.31251
O         81.28244       47.04300       98.58980
C         81.34243       49.78995       96.65406
C         81.28219       51.29378       96.77210
C         82.22223       51.52758       97.94734
H         80.17519       49.30775       98.41022
H         82.35124       49.55564       96.24298
H         80.58059       49.32749       95.99027
H         81.54774       51.85254       95.85000
H         80.24859       51.57479       97.08183
H         83.28781       51.42611       97.64301
H         82.03030       52.53747       98.37094
N         83.28941       47.97564       98.19416
C         84.03750       46.74099       98.32920
C         83.87878       45.95634       97.03022
O         84.36304       46.44960       96.02033
C         85.52894       47.06428       98.58277
C         85.72444       47.85218       99.89831
C         87.14065       48.31539      100.10766
O         87.43632       49.05129      101.19466
O         88.01908       48.06547       99.29688
H         83.80439       48.85275       98.02046
H         83.68895       46.20777       99.23165
H         85.91244       47.67435       97.73417
H         86.11818       46.12270       98.63595
H         85.41646       47.21823      100.75822
H         85.09083       48.76340       99.89828
N         83.21424       44.76946       96.90317
C         82.49522       44.05766       97.93999
H         81.43302       43.95769       97.62975
H         82.92666       43.04253       98.05377
H         82.50126       44.55147       98.92291
H         83.18508       44.33962       95.96501
Ca        93.45214       43.34716      106.00522
O         91.11653       45.74148      105.23429
H         91.02817       45.26769      104.37035
H         91.38129       46.66067      104.98091
O         93.50210       43.79002      109.30885
H         94.43647       43.84819      109.62946
H         92.95201       43.96780      110.11244
O         90.39903       42.71208      105.22122
H         90.73642       42.80859      104.29576
H         89.65084       42.06910      105.14531
O         90.63323       43.94559      108.10504
H         89.78521       44.17185      107.64695
H         90.37760       43.82073      109.05342

Ca 1.0



