%chk=apoCaM-CA-Ng.loop2.water4.frame245.chk
%nprocshared=20
%mem=10GB
%nosave
#b3lyp/svp scf=(tight,noincore,xqc) Test 
#IOP(5/87=12) Density=Current Pop=(MK,readradii) iop(6/33=2) iop(6/42=6)

apoCaM-CA-Ng.loop2.water4.frame245 

   -2  1 
C         41.42055        2.88842      100.34217
C         42.28110        2.72857      101.56083
O         42.98336        3.66978      101.90141
H         40.71450        3.73163      100.49641
H         42.06169        3.11266       99.46343
H         40.83665        1.96899      100.13076
N         42.27557        1.56653      102.27997
C         43.09969        1.38443      103.47360
C         44.56743        1.51407      103.10452
O         45.08402        0.63225      102.43782
C         42.80174        0.04048      104.18754
C         43.12033       -1.19483      103.37609
O         42.54755       -1.41838      102.32170
O         44.03542       -2.07391      103.82707
H         41.64415        0.81199      101.97620
H         42.82337        2.19403      104.18476
H         41.72651        0.00880      104.46641
H         43.39720        0.00771      105.12546
N         45.27897        2.62126      103.47276
C         46.61260        2.95761      102.96748
C         46.49509        3.52312      101.54400
O         46.72423        4.70616      101.32813
C         47.26272        3.97776      103.91701
H         44.80668        3.31726      104.07082
H         47.27396        2.06339      102.98059
H         48.28454        4.23461      103.56477
H         46.65773        4.90811      103.98030
H         47.34540        3.54144      104.93577
N         46.08459        2.71660      100.52758
C         45.75884        3.15884       99.17405
C         47.02665        3.60038       98.43900
O         48.11413        3.36240       98.94886
C         45.03703        1.95020       98.48907
C         44.22512        2.17979       97.25156
O         44.10538        3.39629       96.72227
O         43.58835        1.25575       96.77146
H         45.94781        1.72790      100.73465
H         45.04022        4.00377       99.26777
H         44.27826        1.57646       99.21448
H         45.77188        1.13573       98.31355
N         46.97868        4.22629       97.22728
C         48.16760        4.52772       96.45566
C         49.03736        5.57285       97.10473
O         50.14937        5.24181       97.49227
H         46.08191        4.46102       96.79725
H         47.88491        4.89955       95.44652
H         48.73455        3.58138       96.30846
N         48.63726        6.88051       97.16002
C         49.52769        7.95241       97.60885
C         48.82205        8.88521       98.60669
O         47.61358        8.79331       98.77307
C         50.00543        8.69738       96.33431
C         51.26916        9.52213       96.43393
N         51.69766       10.21113       95.35150
O         51.93986        9.53869       97.45250
H         47.72594        7.13339       96.74671
H         50.41153        7.49632       98.10540
H         49.16590        9.31573       95.94887
H         50.24241        7.93554       95.55783
H         51.16083       10.19524       94.47193
H         52.56990       10.75914       95.39065
N         49.53821        9.78267       99.34177
C         48.98236       10.69865      100.32803
C         48.30557       11.90054       99.70930
O         48.91596       12.53150       98.85784
H         50.55991        9.77812       99.26487
H         49.83946       11.12732      100.89216
H         48.34497       10.16292      101.06278
N         47.09226       12.34034      100.16588
C         46.47750       13.59203       99.70634
C         45.14483       13.38111       99.00954
O         44.67433       14.32659       98.38788
C         46.35349       14.61858      100.86432
C         45.43020       14.16793      102.00886
O         47.62428       14.95280      101.36457
H         46.62345       11.79997      100.90692
H         47.13035       14.05786       98.93639
H         45.91485       15.55173      100.44626
H         47.99117       14.15388      101.82543
H         45.36133       14.97379      102.77028
H         44.40870       13.96266      101.63055
H         45.81947       13.25636      102.50704
N         44.48894       12.18772       99.03076
C         43.31811       11.90893       98.20558
C         43.64186       10.75007       97.28331
O         44.70748       10.15622       97.41211
C         42.04176       11.64190       99.06238
C         42.21904       10.44830      100.03703
C         41.63139       12.92957       99.79948
C         40.92250       10.04518      100.74539
H         44.85893       11.41511       99.60269
H         43.09549       12.77325       97.54066
H         41.21393       11.39584       98.36175
H         42.98706       10.68690      100.80365
H         42.56000        9.55976       99.46436
H         40.66342       12.80564      100.32480
H         42.40370       13.22797      100.53662
H         41.49421       13.75745       99.07114
H         41.11434        9.16313      101.39199
H         40.53830       10.85721      101.39453
H         40.14640        9.77229       99.99875
N         42.76904       10.38027       96.30915
C         43.01151        9.25709       95.41857
C         43.08547        9.71361       93.96500
O         42.98215        8.88427       93.07266
C         41.88525        8.22699       95.64214
C         42.22676        6.86162       95.11472
O         43.32216        6.62951       94.62432
O         41.36520        5.84504       95.27920
H         41.88747       10.90608       96.19614
H         43.97401        8.76056       95.67334
H         40.93145        8.60056       95.21237
H         41.74346        8.08727       96.73661
N         43.31252       11.02083       93.64542
C         43.31625       11.49903       92.27012
C         41.89044       11.49031       91.74886
O         41.04308       12.08076       92.40566
C         43.92865       12.91578       92.19686
C         44.00416       13.40326       90.76756
C         45.21323       13.32868       90.05464
C         42.86162       13.91475       90.12577
C         45.27131       13.74331       88.72039
C         42.92627       14.33529       88.79560
C         44.12897       14.24569       88.09156
H         43.49918       11.70069       94.39723
H         43.99240       10.85884       91.66401
H         44.95986       12.83114       92.60745
H         43.38838       13.65543       92.82741
H         46.10500       12.93104       90.52307
H         41.92039       13.99137       90.65414
H         46.20134       13.67019       88.17198
H         42.04175       14.72708       88.31047
H         44.17517       14.56518       87.05881
N         41.53128       10.89300       90.57034
C         40.17803       10.94680       90.04663
C         39.26614        9.92696       90.71054
O         38.06510        9.99596       90.49023
C         40.37634       10.66110       88.55663
C         41.51292        9.65492       88.58459
C         42.44173       10.25608       89.63959
H         39.74134       11.96358       90.16815
H         39.46226       10.35055       88.00670
H         40.77811       11.58385       88.07793
H         41.09855        8.70116       88.98197
H         42.00018        9.44678       87.60889
H         43.05182        9.44932       90.09900
H         43.09848       11.04036       89.20378
N         39.75790        8.93495       91.50822
C         38.90242        7.95871       92.17072
C         38.28003        8.53404       93.43881
O         37.50432        7.82966       94.07103
C         39.71017        6.68713       92.50196
C         40.21291        5.97865       91.23394
C         41.00211        4.74871       91.57835
O         42.14042        4.85268       92.28995
O         40.62618        3.65098       91.19925
H         40.77654        8.84063       91.62327
H         38.08474        7.64958       91.48190
H         39.06997        5.97132       93.06408
H         40.56914        6.97150       93.13413
H         40.86427        6.65296       90.63960
H         39.33715        5.69499       90.60954
N         38.56202        9.79391       93.88355
C         37.96894       10.33487       95.08687
H         36.86278       10.35594       94.98856
H         38.25523        9.71562       95.96317
H         38.32959       11.37279       95.25275
H         39.21487       10.40037       93.37044
Ca        42.50646        3.93895       95.27632
O         45.64417        2.03473       94.28911
H         46.38718        2.17515       94.92834
H         45.51363        1.05357       94.26946
O         45.63542        5.09407       93.23848
H         46.35112        4.42046       93.12004
H         46.11711        5.92853       93.46657
O         43.00328        1.73803       92.67189
H         42.41333        0.97763       92.90435
H         43.27780        1.56290       91.73683
O         40.16234        2.13095       94.66963
H         39.71626        2.79353       95.25484
H         40.39296        2.63996       93.85237

Ca 1.0



