%chk=apoCaM-CA-Ng.loop2.water2.frame912.chk
%nprocshared=20
%mem=10GB
%nosave
#b3lyp/svp scf=(tight,noincore,xqc) Test 
#IOP(5/87=12) Density=Current Pop=(MK,readradii) iop(6/33=2) iop(6/42=6)

apoCaM-CA-Ng.loop2.water2.frame912 

   -2  1 
C          7.51839       11.00981       22.81758
C          8.95246       11.43465       22.94894
O          9.48705       12.00484       22.00847
H          6.88195       11.89864       22.62638
H          7.41813       10.30055       21.96908
H          7.15631       10.50734       23.73938
N          9.65170       11.17433       24.09040
C         11.06248       11.51867       24.25102
C         11.30500       13.03391       24.36150
O         12.46046       13.42589       24.44457
C         11.63130       10.76904       25.47873
C         13.13273       10.82797       25.55109
O         13.73956       11.36136       26.62752
O         13.80867       10.37130       24.64195
H          9.17714       10.65251       24.84423
H         11.59902       11.12532       23.35807
H         11.35949        9.69273       25.40237
H         11.17877       11.17415       26.40999
N         10.28203       13.94364       24.34823
C         10.47002       15.39197       24.41458
C          9.59829       15.96804       25.52524
O          8.39694       15.74103       25.46867
C         10.05111       16.00360       23.07542
H          9.31201       13.61400       24.25675
H         11.53733       15.64829       24.55013
H         10.68180       15.58814       22.26061
H          8.98739       15.77549       22.84829
H         10.18614       17.10589       23.09738
N         10.05777       16.72003       26.57101
C         11.44137       17.13974       26.79860
C         11.72072       17.31544       28.29169
O         10.81572       17.12863       29.09237
C         11.76351       18.40068       25.96553
C         10.89805       19.58522       26.30451
O          9.68772       19.53571       26.15278
O         11.46542       20.72748       26.73165
H          9.34241       17.04669       27.24001
H         12.12587       16.32084       26.49923
H         11.62671       18.17282       24.88780
H         12.82854       18.67839       26.11359
N         12.98437       17.57647       28.74485
C         13.32969       17.54052       30.16124
C         14.15446       18.72010       30.64029
O         15.29500       18.48889       31.01590
H         13.75146       17.67807       28.06377
H         13.94618       16.62690       30.30791
H         12.44126       17.42907       30.81686
N         13.68928       19.99777       30.74913
C         12.36553       20.45300       30.35940
C         11.44161       20.37774       31.56385
O         11.63911       21.11329       32.52136
C         12.51982       21.88590       29.79528
C         11.30404       22.52162       29.18520
N         11.41904       23.75858       28.64694
O         10.23500       21.93370       29.14434
H         14.32494       20.69402       31.17305
H         11.97912       19.80439       29.54926
H         13.28962       21.85109       28.99334
H         12.89515       22.55666       30.60020
H         12.31969       24.25951       28.67144
H         10.62294       24.21860       28.19063
N         10.45077       19.43980       31.60983
C          9.59169       19.23487       32.76569
C          8.53041       20.29889       32.93753
O          7.82387       20.24483       33.93423
H         10.35398       18.78270       30.82767
H         10.22569       19.16403       33.67625
H          9.05457       18.26782       32.65543
N          8.32945       21.27186       32.00524
C          7.32886       22.32549       32.12748
C          6.32512       22.20762       30.98521
O          6.53673       21.40812       30.08253
C          8.10415       23.67587       32.13297
C          7.24861       24.93770       32.24152
O          9.00093       23.67699       33.21597
H          8.91046       21.28229       31.15725
H          6.76433       22.22040       33.07979
H          8.67032       23.77048       31.17463
H          9.87225       23.33879       32.88008
H          6.61743       25.07461       31.34268
H          6.62242       24.90757       33.15806
H          7.91150       25.82742       32.29198
N          5.20372       22.98309       30.95850
C          4.28972       23.03404       29.82482
C          4.45882       24.40987       29.21461
O          4.21288       25.40320       29.88650
C          2.82573       22.73371       30.25447
C          1.87784       22.81178       29.02593
C          2.75276       21.34690       30.92248
C          0.39720       22.63006       29.36506
H          5.01325       23.61610       31.74906
H          4.57456       22.27404       29.06333
H          2.51119       23.49772       31.00015
H          2.17257       22.05277       28.26766
H          1.96860       23.81478       28.56345
H          1.73242       21.13294       31.29778
H          3.04923       20.55152       30.20521
H          3.42686       21.30062       31.80306
H          0.18968       21.61828       29.76631
H          0.07527       23.39636       30.10164
H         -0.20718       22.75243       28.44096
N          4.95410       24.53078       27.95323
C          5.30971       25.79280       27.33106
C          4.49176       25.99504       26.06452
O          5.00254       26.52323       25.09032
C          6.82625       25.75948       27.03673
C          7.63982       25.64435       28.30106
O          7.70707       26.58882       29.07071
O          8.29115       24.50130       28.59674
H          5.13136       23.67997       27.41084
H          5.08745       26.64878       28.00549
H          7.16346       26.66621       26.49071
H          7.02892       24.88187       26.38425
N          3.17481       25.63131       26.04463
C          2.27771       25.90427       24.93208
C          1.66651       24.61492       24.37070
O          1.01972       23.90539       25.11998
C          1.12177       26.78689       25.45667
C          0.09825       27.03476       24.37495
C         -1.16384       26.41998       24.45054
C          0.40777       27.83761       23.26624
C         -2.09397       26.59341       23.42382
C         -0.52970       28.01579       22.24461
C         -1.77743       27.39016       22.32104
H          2.77244       25.17654       26.87286
H          2.80119       26.46822       24.13748
H          1.50009       27.75281       25.85619
H          0.64188       26.24858       26.30489
H         -1.41863       25.78535       25.29070
H          1.37589       28.31706       23.19059
H         -3.05676       26.10246       23.48072
H         -0.28553       28.63188       21.38951
H         -2.49817       27.51973       21.52481
N          1.71337       24.32170       23.02785
C          0.83442       23.33606       22.40523
C          1.27770       21.89388       22.55291
O          0.58108       21.03792       22.01895
C          0.81109       23.78624       20.93837
C          2.22456       24.28875       20.74470
C          2.43690       25.08108       22.03085
H         -0.20324       23.41988       22.79781
H          0.45611       23.02651       20.20927
H          0.14380       24.67652       20.85699
H          2.89887       23.40249       20.75286
H          2.40499       24.86894       19.81499
H          3.52471       25.16119       22.24751
H          1.98475       26.09128       21.94707
N          2.38941       21.51894       23.24699
C          2.78484       20.11394       23.36043
C          1.77257       19.26646       24.13279
O          1.93473       18.05484       24.14866
C          4.18561       19.98673       23.99858
C          4.18596       20.36281       25.48517
C          5.57523       20.48315       26.02477
O          5.93001       21.68142       26.50556
O          6.34487       19.53672       26.05520
H          2.98875       22.24933       23.65954
H          2.86212       19.71786       22.32293
H          4.87558       20.65346       23.43464
H          4.56185       18.94481       23.90077
H          3.61508       19.61771       26.07964
H          3.69192       21.34936       25.61882
N          0.73127       19.82736       24.82010
C         -0.23710       19.05687       25.57422
H         -1.25392       19.25588       25.17545
H         -0.04749       17.96474       25.52236
H         -0.20352       19.36908       26.63940
H          0.60977       20.84862       24.84035
Ca         7.67665       22.58791       27.57446
O          8.99336       22.97772       24.69092
H          9.72483       22.53979       24.18720
H          8.64820       23.67236       24.07531
O          7.98568       19.22939       28.63708
H          7.18764       18.64726       28.57378
H          8.46788       18.89634       29.43328

Ca 1.0



