%chk=apoCaM-CA-Ng.loop2.water3.frame28.chk
%nprocshared=20
%mem=10GB
%nosave
#b3lyp/svp scf=(tight,noincore,xqc) Test 
#IOP(5/87=12) Density=Current Pop=(MK,readradii) iop(6/33=2) iop(6/42=6)

apoCaM-CA-Ng.loop2.water3.frame28 

   -2  1 
C         71.82589       39.99599       41.77611
C         72.32362       38.89919       42.67228
O         73.52634       38.75104       42.83481
H         71.17630       40.68680       42.35393
H         72.67035       40.57379       41.34408
H         71.23385       39.55517       40.94577
N         71.43019       38.08479       43.29653
C         71.81554       36.97895       44.16649
C         72.57642       35.91953       43.38807
O         73.63838       35.51012       43.83258
C         70.56387       36.35066       44.81039
C         70.93425       35.27403       45.79529
O         71.70030       35.56983       46.86362
O         70.54307       34.12966       45.63218
H         70.42532       38.26894       43.14632
H         72.44602       37.37376       44.99654
H         69.89986       35.93520       44.02059
H         70.00092       37.13580       45.36009
N         72.08560       35.44030       42.20561
C         72.72391       34.39806       41.40383
C         74.16293       34.73746       41.01791
O         74.94875       33.83342       40.76850
C         72.60273       33.04369       42.11279
H         71.21156       35.84619       41.83869
H         72.15380       34.29386       40.45447
H         71.52962       32.82882       42.31011
H         72.99577       32.23211       41.46361
H         73.15210       33.03736       43.07574
N         74.56928       36.03644       40.94391
C         75.90614       36.48731       40.58076
C         76.96477       35.86635       41.49349
O         77.94612       35.32015       41.00684
C         76.14937       36.24225       39.07145
C         77.29487       37.05771       38.54058
O         78.25584       36.51457       38.02159
O         77.23646       38.40298       38.59128
H         73.88849       36.77794       41.15714
H         75.91169       37.58893       40.74240
H         75.25104       36.56468       38.50171
H         76.30180       35.15753       38.87605
N         76.79475       35.88249       42.84841
C         77.72803       35.26494       43.78230
C         78.86664       36.18606       44.17812
O         79.72467       35.76000       44.93776
H         75.93520       36.29533       43.23461
H         78.11657       34.31346       43.35477
H         77.18166       34.99930       44.71221
N         78.94426       37.45941       43.70347
C         80.03808       38.37890       43.99821
C         80.08185       38.79336       45.45943
O         79.09792       39.29781       45.98262
C         79.91030       39.62434       43.10065
C         80.04430       39.21919       41.65303
N         81.19921       38.67883       41.19787
O         79.10026       39.35977       40.89194
H         78.21120       37.78761       43.05949
H         80.99878       37.88412       43.74103
H         80.70833       40.36118       43.33426
H         78.92295       40.10759       43.28034
H         82.01078       38.55718       41.82036
H         81.28780       38.37783       40.21962
N         81.24500       38.65032       46.15778
C         81.44191       39.06189       47.53740
C         81.25026       40.55029       47.72361
O         81.86509       41.32817       47.00726
H         82.06078       38.23830       45.67975
H         82.49077       38.82654       47.82179
H         80.77235       38.48174       48.20743
N         80.43959       41.01527       48.71574
C         80.21836       42.43508       48.97350
C         79.50512       43.07684       47.79805
O         80.02328       44.02349       47.22199
C         79.42178       42.62661       50.30224
C         79.11018       44.09948       50.59741
O         78.21844       41.90064       50.27912
H         79.98557       40.32453       49.33270
H         81.20257       42.93692       49.11844
H         80.07130       42.23203       51.11948
H         77.99995       41.65921       51.21693
H         80.04486       44.69518       50.64583
H         78.44561       44.52593       49.81500
H         78.58326       44.18224       51.57195
N         78.27718       42.62922       47.42819
C         77.45492       43.27008       46.40758
C         78.05993       43.12247       45.02177
O         79.04339       42.41105       44.86540
C         75.99561       42.69763       46.45274
C         75.94029       41.18215       46.08824
C         75.36794       42.99039       47.83332
C         74.52786       40.59383       46.09614
H         77.89463       41.83170       47.94723
H         77.39693       44.35606       46.64401
H         75.38335       43.24807       45.70642
H         76.55453       40.57369       46.78237
H         76.35122       41.04412       45.06570
H         75.43047       44.07656       48.05624
H         74.29433       42.71876       47.85254
H         75.87686       42.43690       48.64894
H         74.09687       40.60714       47.11851
H         73.86654       41.15539       45.40427
H         74.56823       39.53241       45.77079
N         77.46808       43.73298       43.95334
C         77.84652       43.45845       42.57415
C         78.22721       44.72939       41.78249
O         78.49787       44.61701       40.59545
C         76.65769       42.68754       41.96127
C         76.98091       41.93775       40.70623
O         76.09305       41.32873       40.13043
O         78.22978       41.90595       40.20829
H         76.64151       44.32945       44.11331
H         78.72346       42.77541       42.55431
H         75.81431       43.39213       41.79040
H         76.31613       41.91100       42.68156
N         78.32954       45.95836       42.37827
C         78.77486       47.17506       41.68045
C         77.72903       47.64646       40.66933
O         76.62831       47.94366       41.10516
C         79.00031       48.29667       42.72209
C         79.48750       49.59600       42.12594
C         80.85841       49.81457       41.91085
C         78.57217       50.61640       41.81173
C         81.30410       51.03718       41.39556
C         79.02058       51.83150       41.28714
C         80.38589       52.04384       41.08305
H         78.14791       46.02546       43.38991
H         79.75096       46.96029       41.20046
H         79.72839       47.96069       43.49282
H         78.04814       48.48271       43.26695
H         81.58121       49.04670       42.15634
H         77.51105       50.47074       41.97035
H         82.36199       51.20738       41.24298
H         78.30924       52.61069       41.04490
H         80.73173       52.98965       40.68600
N         77.97313       47.79898       39.32528
C         76.97456       48.28171       38.37211
C         75.72651       47.42062       38.23278
O         74.83676       47.82157       37.49349
C         77.71694       48.28390       37.03074
C         79.13618       48.56457       37.46115
C         79.26906       47.67065       38.69467
H         76.69742       49.31465       38.68368
H         77.72079       47.25158       36.60824
H         77.29306       48.97425       36.26886
H         79.90716       48.39708       36.67963
H         79.17953       49.62979       37.78719
H         79.42631       46.60494       38.41866
H         80.10768       48.06509       39.30532
N         75.59233       46.22611       38.88013
C         74.42198       45.36661       38.75971
C         73.66556       45.26261       40.08379
O         72.59725       44.66869       40.08987
C         74.86956       43.96774       38.29492
C         75.55335       43.96610       36.91365
C         76.05960       42.58710       36.58498
O         75.30061       41.63094       36.59497
O         77.37535       42.38649       36.38434
H         76.35505       45.88308       39.47827
H         73.70397       45.78565       38.02108
H         73.99059       43.28764       38.25712
H         75.58213       43.57887       39.04976
H         76.41838       44.66531       36.91813
H         74.83174       44.29401       36.13771
N         74.13931       45.82143       41.23675
C         73.43335       45.81241       42.49979
H         72.43985       45.32632       42.42829
H         74.04527       45.28209       43.25946
H         73.28729       46.86220       42.83526
H         75.04854       46.28169       41.24826
Ca        78.32499       41.28886       38.07410
O         78.96431       39.28977       35.56889
H         78.42727       39.11953       34.75534
H         79.88205       39.01326       35.32037
O         80.85343       38.73094       37.77553
H         80.74751       37.74767       37.73108
H         81.83262       38.87434       37.80448
O         80.93477       41.69439       36.99912
H         81.36011       41.81280       36.11374
H         81.24523       42.46582       37.53633

Ca 1.0



