%chk=apoCaM-CA-Ng.loop1.water3.frame973.chk
%nprocshared=20
%mem=10GB
%nosave
#b3lyp/svp scf=(tight,noincore,xqc) Test 
#IOP(5/87=12) Density=Current Pop=(MK,readradii) iop(6/33=2) iop(6/42=6)

apoCaM-CA-Ng.loop1.water3.frame973 

   0  1 
C         56.45877       15.75324       23.46506
C         57.30925       14.52028       23.55945
O         56.90017       13.48335       23.05721
H         55.48516       15.56618       23.96577
H         56.94315       16.62151       23.96002
H         56.28086       16.00481       22.39978
N         58.49554       14.54966       24.22864
C         59.32978       13.35923       24.40459
C         60.38119       13.50706       25.54481
O         60.23373       14.70989       26.24223
C         60.01237       12.96772       23.07536
C         60.86722       14.07730       22.51483
O         61.93499       14.53087       23.19723
O         60.60114       14.56424       21.42714
H         58.76669       15.44226       24.66378
H         58.65576       12.52930       24.71593
H         59.23112       12.71365       22.32795
H         60.64042       12.06282       23.22161
N         60.32294       12.34550       26.44922
C         61.08017       12.46046       27.71129
C         62.57784       12.23458       27.54457
O         62.98842       11.25795       26.93327
C         60.46245       11.54242       28.78900
C         60.49120       10.03128       28.50098
C         59.67125        9.23235       29.53851
C         60.15362        9.32978       31.00019
N         61.48500        8.75334       31.18708
H         60.58584       11.47638       25.92907
H         60.92258       13.47010       28.14574
H         59.40043       11.85278       28.90701
H         60.98520       11.73960       29.74957
H         61.53629        9.66137       28.45874
H         60.02063        9.84309       27.51331
H         59.66170        8.16191       29.24009
H         58.62092        9.59684       29.50207
H         59.43292        8.76803       31.63557
H         60.14177       10.38272       31.35375
H         61.73277        8.79688       32.20231
H         61.48588        7.75168       30.88582
H         62.19979        9.29131       30.64837
N         63.44916       13.08345       28.16164
C         64.90087       12.89192       28.19247
C         65.50340       13.53250       29.44910
O         64.90651       14.45387       29.98921
C         65.55667       13.41511       26.89122
C         65.20604       14.85666       26.62049
O         64.49912       15.18329       25.52578
O         65.48405       15.72788       27.42766
H         63.03660       13.83055       28.73600
H         65.08119       11.80159       28.30152
H         65.19580       12.79935       26.03906
H         66.66087       13.31160       26.94248
N         66.63159       13.06427       30.06000
C         67.48693       11.98756       29.58656
C         67.39964       10.77529       30.48467
O         66.53998       10.71772       31.35280
H         66.90627       13.50272       30.95372
H         68.52997       12.36981       29.57903
H         67.24989       11.66389       28.55583
N         68.26057        9.73506       30.29685
C         68.20505        8.50027       31.07939
C         68.47709        8.68230       32.57164
O         68.24541        7.72883       33.30261
C         69.15519        7.42367       30.50460
C         70.61742        7.78179       30.61422
O         71.44400        7.00633       31.34104
O         71.06897        8.75514       30.03280
H         68.93769        9.81514       29.52491
H         67.16798        8.10825       30.97783
H         68.90359        7.23972       29.43825
H         68.98409        6.47266       31.05584
N         68.95735        9.84599       33.10319
C         69.15004       10.03743       34.53701
C         68.25428       11.12254       35.09707
O         68.26537       11.30782       36.30617
H         69.19406       10.63169       32.48125
H         70.21260       10.28875       34.74092
H         68.91260        9.10858       35.09799
N         67.45079       11.87767       34.29404
C         66.53218       12.89577       34.77803
C         66.99942       14.25105       34.27758
O         67.92417       14.30628       33.47458
C         65.10448       12.56939       34.25216
C         64.65826       11.15070       34.63289
O         64.17462       13.49218       34.75545
H         67.48221       11.75152       33.27833
H         66.53049       12.91814       35.88984
H         65.13131       12.63461       33.13704
H         63.37954       13.45456       34.16085
H         64.62593       11.03435       35.73593
H         63.64640       10.95140       34.21879
H         65.34677       10.39056       34.20575
N         66.40789       15.40162       34.70625
C         66.78967       16.70524       34.17039
C         68.23875       17.06333       34.52032
O         68.77186       17.96103       33.88580
C         65.75365       17.81081       34.56245
C         64.28885       17.41345       34.19687
C         66.08473       19.17555       33.92491
C         64.05636       17.05551       32.72352
H         65.65040       15.33453       35.39924
H         66.75603       16.61288       33.06253
H         65.78244       17.95144       35.66582
H         63.61084       18.25026       34.47225
H         63.96070       16.54495       34.80180
H         66.13063       19.10312       32.81833
H         65.31565       19.92660       34.20346
H         67.04947       19.57210       34.29639
H         64.64170       16.15769       32.43552
H         62.98427       16.81077       32.57129
H         64.31769       17.89895       32.05406
N         68.96364       16.36628       35.45164
C         70.39501       16.59035       35.66172
C         70.71368       17.00542       37.08625
O         69.83043       17.03406       37.93031
C         71.19358       15.33477       35.22239
C         70.87778       14.08819       36.05835
O         70.91860       15.04744       33.87562
H         68.50841       15.62431       35.99910
H         70.74360       17.43141       35.02479
H         72.28502       15.52592       35.33297
H         71.30920       15.78470       33.33704
H         71.49422       13.23667       35.70029
H         71.11359       14.26271       37.12903
H         69.81252       13.79469       35.96263
N         71.98512       17.40396       37.38967
C         72.38803       17.92601       38.68772
C         72.66508       19.40806       38.51228
O         71.94569       20.20668       39.09878
C         73.57790       17.10421       39.25717
C         74.03775       17.62093       40.62513
O         74.66344       17.10867       38.36587
H         72.68955       17.40648       36.63743
H         71.55099       17.83254       39.41563
H         73.21278       16.05714       39.37873
H         75.23184       16.32624       38.59140
H         74.85677       16.97704       41.01247
H         74.42089       18.66059       40.54539
H         73.19858       17.59361       41.35113
N         73.66046       19.85382       37.69453
C         73.87505       21.26274       37.38502
C         73.97054       21.47016       35.88078
O         74.02830       20.49882       35.13567
C         75.06626       21.81714       38.19221
C         76.36414       20.99953       38.08529
C         77.40882       21.54076       39.07323
C         78.66374       20.65980       39.11114
N         79.61905       21.15911       40.10085
H         74.28445       19.16875       37.24543
H         72.98861       21.85324       37.70704
H         74.75271       21.79057       39.25967
H         75.25190       22.87980       37.92346
H         76.75622       21.01961       37.04568
H         76.15308       19.94688       38.37090
H         76.96748       21.54805       40.09502
H         77.68231       22.58259       38.79779
H         79.14146       20.64093       38.10734
H         78.37459       19.61969       39.38417
H         80.45575       20.53249       40.11792
H         79.92339       22.12797       39.85161
H         79.18362       21.16156       41.05252
N         73.90231       22.72752       35.35740
C         73.84496       22.99047       33.92037
C         72.67216       22.24098       33.27952
O         72.94192       21.44241       32.39367
C         73.78027       24.50618       33.62110
C         75.07858       25.23542       33.99279
C         74.93354       26.71652       33.78248
O         74.67633       27.16330       32.67571
O         75.08242       27.55992       34.82205
H         73.83084       23.52215       36.01183
H         74.77875       22.60977       33.44507
H         72.95354       24.97423       34.18156
H         73.60270       24.65782       32.53268
H         75.91387       24.85443       33.36574
H         75.32797       25.05366       35.05881
N         71.36207       22.36661       33.65137
C         70.85659       23.23985       34.68836
H         69.76567       23.07318       34.81293
H         71.34605       23.02674       35.65944
H         70.97472       24.29958       34.40242
H         70.66768       21.77282       33.17058
Ca        62.33318       15.47558       25.98176
O         63.27737       18.64429       26.77158
H         63.98566       19.11723       26.26666
H         63.65430       18.53234       27.68031
O         63.69993       17.42919       23.31534
H         64.26186       18.18376       23.00651
H         63.57907       16.86474       22.51078
O         61.90311       16.43734       28.73491
H         62.86111       16.36931       28.97597
H         61.47588       15.66983       29.19092

Ca 1.0



