%chk=apoCaM-CA-Ng.loop3.water6.frame1151.chk
%nprocshared=20
%mem=10GB
%nosave
#b3lyp/svp scf=(tight,noincore,xqc) Test 
#IOP(5/87=12) Density=Current Pop=(MK,readradii) iop(6/33=2) iop(6/42=6)

apoCaM-CA-Ng.loop3.water6.frame1151 

   0  1 
C         61.24780       41.18242       70.18890
C         60.66127       40.23770       69.18491
O         61.42729       39.55834       68.51627
H         61.90832       41.90725       69.66725
H         60.45789       41.74371       70.72899
H         61.84969       40.61036       70.92596
N         59.30814       40.13524       69.02455
C         58.69638       39.24737       68.04263
C         57.87271       40.03359       67.03547
O         56.74162       39.66011       66.75802
C         57.90643       38.11214       68.73959
C         56.73048       38.54631       69.58315
O         56.00544       37.61058       70.22413
O         56.41491       39.72101       69.69011
H         58.69467       40.71353       69.61665
H         59.48765       38.74064       67.45027
H         58.60980       37.54963       69.39064
H         57.53145       37.40957       67.96312
N         58.42257       41.10906       66.39172
C         57.79066       41.83068       65.28339
C         57.72282       40.97140       64.01232
O         57.18074       41.43295       63.01837
C         56.39998       42.39789       65.66549
C         56.43320       43.23491       66.95517
C         55.05145       43.84534       67.24262
C         55.00779       44.67988       68.53487
N         55.18938       43.86113       69.73599
H         59.36327       41.42134       66.67519
H         58.43486       42.70283       65.03231
H         55.66067       41.58013       65.78975
H         56.04371       43.03701       64.82737
H         57.17805       44.05403       66.85260
H         56.73733       42.57598       67.79360
H         54.28156       43.04524       67.30355
H         54.78797       44.51479       66.39447
H         54.00979       45.16877       68.59248
H         55.77821       45.48158       68.49927
H         54.46280       43.10924       69.77113
H         56.14298       43.43724       69.76235
H         55.08012       44.46905       70.57966
N         58.27743       39.72234       63.97296
C         58.26415       38.80877       62.82900
C         58.80857       37.44542       63.25923
O         59.65495       37.37687       64.14111
C         58.99819       39.38254       61.59825
C         60.40785       39.81486       61.88996
O         61.33466       38.92430       62.28490
O         60.72181       40.98779       61.76145
H         58.74068       39.38231       64.81891
H         57.20310       38.64270       62.53818
H         58.43308       40.26391       61.22839
H         58.99776       38.63217       60.77856
N         58.25499       36.29861       62.77975
C         58.51065       35.01049       63.40592
C         57.88843       35.05207       64.79150
O         56.69873       35.33104       64.84989
H         57.56343       36.34577       62.01611
H         59.59441       34.78150       63.38795
H         57.99243       34.21555       62.82805
N         58.55694       34.84554       65.96411
C         59.92654       34.36674       66.11041
C         60.45807       34.77390       67.48669
O         59.81888       34.44037       68.47546
C         59.90975       32.82758       65.98991
C         61.26249       32.19862       66.21682
N         62.30003       32.45971       65.39028
O         61.41838       31.43552       67.15881
H         57.99647       34.93797       66.82694
H         60.57227       34.79307       65.32298
H         59.53908       32.53238       64.98520
H         59.19734       32.42350       66.74480
H         62.18675       33.09137       64.58488
H         63.22004       32.02526       65.55639
N         61.61705       35.47150       67.67097
C         62.50794       35.88030       66.59689
C         63.73643       36.55504       67.15703
O         64.44315       35.93033       67.93631
H         61.88482       35.69627       68.64329
H         61.96777       36.56157       65.90687
H         62.84618       34.98864       66.03221
N         64.03603       37.84441       66.82803
C         65.16862       38.56350       67.40976
C         65.07549       40.06923       67.13403
O         64.24870       40.50263       66.34282
C         66.50661       37.96102       66.89216
C         67.72390       38.41876       67.65877
C         68.75551       39.12854       67.02148
C         67.84498       38.11483       69.02638
C         69.88346       39.53434       67.74450
C         68.97061       38.52281       69.74605
C         69.99398       39.23620       69.10740
O         71.08493       39.63706       69.79103
H         63.39122       38.33252       66.19651
H         65.07968       38.44046       68.51136
H         66.60062       38.19406       65.80858
H         66.49693       36.85577       66.98161
H         68.68870       39.36922       65.96804
H         67.06823       37.55854       69.53585
H         70.67195       40.08353       67.24569
H         69.04639       38.28139       70.79899
H         71.19776       39.45096       70.73440
N         65.86427       40.93904       67.82530
C         65.76866       42.39819       67.69796
C         66.14655       42.85599       66.28638
O         66.61750       42.03817       65.50700
C         66.64307       43.05305       68.82852
C         68.16085       42.83585       68.57759
C         66.32287       44.53738       69.08410
C         69.04481       43.24122       69.75671
H         66.49852       40.54209       68.53129
H         64.70531       42.66510       67.88833
H         66.34999       42.53035       69.76741
H         68.47948       43.40095       67.67470
H         68.35851       41.76398       68.38876
H         66.78702       44.87386       70.03287
H         66.72163       45.19765       68.29238
H         65.22686       44.68085       69.19608
H         68.76170       42.66275       70.66153
H         70.10521       43.01951       69.51260
H         68.96781       44.32635       69.96897
N         66.00078       44.15789       65.89942
C         66.47372       44.66165       64.61459
C         65.45931       45.56625       63.93677
O         64.44914       45.91657       64.53017
C         67.76820       45.45929       64.85549
O         67.51419       46.55008       65.70073
H         65.60480       44.83752       66.55882
H         66.71196       43.81873       63.92993
H         68.17971       45.82419       63.88869
H         68.51686       44.78627       65.32950
H         68.38191       47.01461       65.82429
N         65.73215       46.03093       62.68342
C         64.99610       47.07460       61.98379
C         65.16369       48.39337       62.71738
O         64.18569       49.08265       62.97477
C         63.53013       46.68878       61.72644
H         66.57198       45.67026       62.20510
H         65.48133       47.21133       60.99174
H         63.03100       47.47839       61.12438
H         63.48184       45.73506       61.16064
H         62.96341       46.57264       62.67281
N         66.41778       48.79056       63.10052
C         66.73559       50.04800       63.77317
C         66.04826       50.23204       65.12592
O         66.20324       51.30033       65.70291
C         66.43031       51.22399       62.83523
H         67.21296       48.16871       62.88813
H         67.83278       50.07601       63.96053
H         66.98357       51.09200       61.88041
H         65.34678       51.30252       62.61490
H         66.76754       52.17873       63.29273
N         65.27637       49.26173       65.70238
C         64.51886       49.48247       66.93193
C         65.41451       49.72246       68.14695
O         64.89284       50.12968       69.17515
C         63.55266       48.29064       67.15193
C         62.52749       48.49760       68.28188
C         61.54332       47.36155       68.39408
O         60.57862       47.41752       69.33148
O         61.60144       46.39229       67.65237
H         65.17294       48.35412       65.23401
H         63.89897       50.39213       66.76407
H         64.14067       47.36379       67.33632
H         62.97502       48.15610       66.20932
H         61.95664       49.43080       68.08511
H         63.04102       48.58580       69.25901
N         66.76216       49.50331       68.11300
C         67.63347       49.73894       69.24792
H         68.40873       50.48186       68.96693
H         67.08759       50.12671       70.13392
H         68.13032       48.78861       69.53372
H         67.20885       49.14168       67.25940
Ca        63.39751       39.68706       62.81055
O         64.06223       40.68728       59.98399
H         63.67000       39.77823       60.00793
H         63.27989       41.29372       59.95957
O         61.45343       39.74304       65.07904
H         61.02947       39.74255       65.97006
H         61.60558       38.78666       64.88195
O         63.94806       42.77106       63.27612
H         64.65062       42.84530       62.58285
H         63.31909       43.50802       63.07173
O         61.86162       42.57522       65.37653
H         60.99184       42.59703       64.90371
H         61.65546       42.87523       66.29681
O         66.35896       40.41550       62.75130
H         66.94757       40.11338       63.48774
H         66.73763       39.99272       61.94006
O         64.60135       37.04255       63.35647
H         64.36472       36.54045       64.17567
H         65.49233       37.42905       63.54919

Ca 1.0



