%chk=apoCaM-CA-Ng.loop2.water4.frame1441.chk
%nprocshared=20
%mem=10GB
%nosave
#b3lyp/svp scf=(tight,noincore,xqc) Test 
#IOP(5/87=12) Density=Current Pop=(MK,readradii) iop(6/33=2) iop(6/42=6)

apoCaM-CA-Ng.loop2.water4.frame1441 

   -2  1 
C         61.25346      112.65852       18.81994
C         61.74657      111.74839       17.72552
O         62.34867      110.73440       18.04670
H         60.14863      112.75160       18.77762
H         61.53006      112.25793       19.81892
H         61.72087      113.66074       18.71134
N         61.57628      112.02486       16.39859
C         60.88467      113.20424       15.88022
C         61.84100      114.20158       15.23963
O         61.38170      115.27146       14.86428
C         59.74571      112.79157       14.91831
C         60.18477      112.11020       13.64404
O         59.34343      111.75848       12.83352
O         61.48363      111.89449       13.37110
H         61.98863      111.36364       15.72361
H         60.40608      113.75672       16.71329
H         59.17464      113.70151       14.63225
H         59.05403      112.11146       15.46098
N         63.17863      113.95026       15.11624
C         64.13834      114.93260       14.62488
C         64.85778      114.48061       13.35942
O         65.72043      115.21742       12.90117
C         65.16044      115.18187       15.74117
H         63.55929      113.04322       15.42312
H         63.63914      115.89864       14.39532
H         65.89758      115.95531       15.43986
H         64.64185      115.53215       16.65933
H         65.70598      114.24264       15.98238
N         64.58256      113.29106       12.74774
C         65.33722      112.77870       11.60823
C         64.45893      112.57988       10.34073
O         63.07463      112.40129       10.52730
C         66.17369      111.54223       12.03548
C         65.44602      110.34495       12.58493
O         64.23907      110.33749       12.73405
O         66.15771      109.26354       12.95349
H         63.84465      112.69204       13.13199
H         66.10678      113.51365       11.28578
H         66.88121      111.87441       12.82587
H         66.78651      111.20740       11.17219
N         65.09853      111.72567        9.32332
C         64.31860      111.45688        8.10539
C         63.78141      110.04361        8.11230
O         63.93361      109.33939        9.09976
H         65.97058      112.23175        9.03895
H         65.00047      111.52162        7.22679
H         63.50742      112.20223        7.95113
N         63.16252      109.54483        7.00454
C         62.56207      108.20863        6.95049
C         63.55296      107.05754        7.14869
O         63.09454      105.92483        7.21322
C         61.84434      107.99107        5.59874
C         60.78255      109.02785        5.33158
N         60.86020      109.82789        4.24198
O         59.83985      109.14069        6.10071
H         63.08087      110.16402        6.18303
H         61.80540      108.14937        7.76468
H         61.35232      106.99386        5.59004
H         62.60310      108.00419        4.78514
H         61.64549      109.74574        3.57943
H         60.13182      110.53295        4.05691
N         64.90119      107.24526        7.25010
C         65.85416      106.15769        7.43314
C         66.57755      106.29059        8.75713
O         66.23318      107.17422        9.53009
H         65.29733      108.19257        7.18735
H         66.58480      106.21301        6.59920
H         65.36538      105.16093        7.40343
N         67.62012      105.48455        9.11523
C         68.20009      104.42402        8.29137
C         68.28376      103.08099        9.02706
O         68.79334      102.14190        8.43141
C         69.62962      104.85723        7.86879
C         69.61242      106.09040        6.96063
O         70.39869      105.13352        9.01405
H         68.08090      105.68865       10.01660
H         67.60533      104.25348        7.37011
H         70.09132      104.02733        7.28205
H         71.32769      104.83774        8.83033
H         69.04291      105.87097        6.03260
H         69.15254      106.96132        7.47291
H         70.65159      106.35971        6.67511
N         67.86944      102.91764       10.32084
C         68.11702      101.70558       11.10641
C         66.79847      101.16392       11.66479
O         66.10713      101.92872       12.32269
C         69.10244      102.05959       12.26293
C         70.44279      102.57525       11.66829
C         69.34353      100.84003       13.17699
C         71.43943      103.07996       12.71044
H         67.43267      103.70622       10.81749
H         68.63375      100.93795       10.50319
H         68.64830      102.86909       12.87735
H         70.24013      103.43524       10.99966
H         70.92147      101.77432       11.06228
H         69.99564      101.10202       14.03275
H         68.39093      100.48216       13.61809
H         69.80965      100.00784       12.60819
H         72.34035      103.47085       12.19132
H         70.98714      103.90335       13.30241
H         71.77023      102.26894       13.38828
N         66.38832       99.85967       11.54221
C         67.11196       98.81060       10.82028
C         66.64040       97.39802       11.18326
O         65.67496       97.22956       11.91601
C         66.96125       99.02967        9.28895
C         65.52050       98.99548        8.84044
O         65.02033       99.97783        8.31603
O         64.77913       97.88178        8.99806
H         65.52214       99.60427       12.04088
H         68.17949       98.83899       11.12493
H         67.52591       98.25844        8.72539
H         67.38468      100.00696        8.99650
N         67.29397       96.32552       10.64957
C         66.85576       94.94029       10.77113
C         67.96908       94.06123       11.33518
O         69.05851       94.09501       10.77614
C         66.52029       94.43240        9.35286
C         66.07723       92.99035        9.36464
C         67.00321       91.96821        9.09175
C         64.74889       92.65311        9.66804
C         66.60742       90.62986        9.12887
C         64.35301       91.31160        9.68935
C         65.28231       90.30120        9.42366
H         68.12101       96.50383       10.05857
H         65.93115       94.86315       11.37518
H         67.42738       94.53300        8.71546
H         65.73580       95.06086        8.87743
H         68.03582       92.20723        8.86874
H         64.02215       93.42740        9.88024
H         67.32974       89.84861        8.93062
H         63.32651       91.05441        9.91483
H         64.97699       89.26345        9.44735
N         67.76927       93.15827       12.34772
C         66.53406       92.94338       13.09025
C         66.13378       94.14320       13.91244
O         64.97432       94.52869       13.88836
C         66.86874       91.77317       14.02907
C         67.87764       91.00251       13.21072
C         68.74612       92.14063       12.68489
H         65.73143       92.62620       12.38802
H         67.41810       92.13588       14.92855
H         65.98222       91.19831       14.37409
H         68.42928       90.21450       13.76566
H         67.34105       90.53372       12.35285
H         69.41539       92.53272       13.48259
H         69.33747       91.78169       11.81454
N         67.06834       94.78651       14.66603
C         66.75593       95.89354       15.55530
C         66.04818       95.33694       16.78304
O         66.64959       94.52626       17.47447
C         68.05560       96.61259       15.98398
C         68.73604       97.30366       14.78888
C         70.04175       97.92413       15.19452
O         71.07853       97.57951       14.64954
O         70.07740       98.86749       16.15482
H         68.04792       94.46809       14.60218
H         66.13887       96.64076       15.01374
H         68.75343       95.87504       16.44146
H         67.81785       97.38744       16.74607
H         68.06538       98.09575       14.39144
H         68.92494       96.57126       13.97449
N         64.78230       95.68763       17.14464
C         63.95780       96.61772       16.40687
H         62.97321       96.72402       16.90957
H         64.44470       97.61410       16.36753
H         63.77916       96.24035       15.37969
H         64.37874       95.26157       17.99378
Ca        62.26206      110.31359       10.95734
O         59.21604      108.95836       10.79866
H         58.82146      108.53284        9.99627
H         58.45740      109.42531       11.23075
O         61.40418      108.64464       13.47924
H         60.74417      108.07488       13.94792
H         61.79756      109.20757       14.19229
O         60.36041      111.22506        8.76603
H         59.47309      110.84636        8.54379
H         60.60950      111.76093        7.97183
O         62.00752      107.41437       10.58298
H         61.51900      106.73659       10.05264
H         62.74147      106.91373       11.01950

Ca 1.0



