%chk=apoCaM-CA-Ng.loop3.water3.frame698.chk
%nprocshared=20
%mem=10GB
%nosave
#b3lyp/svp scf=(tight,noincore,xqc) Test 
#IOP(5/87=12) Density=Current Pop=(MK,readradii) iop(6/33=2) iop(6/42=6)

apoCaM-CA-Ng.loop3.water3.frame698 

   0  1 
C        104.88345       97.21337      -12.47586
C        106.27765       97.27044      -13.02719
O        106.59650       98.21586      -13.73390
H        104.14892       97.17618      -13.30496
H        104.73980       96.32348      -11.82665
H        104.69878       98.12035      -11.86088
N        107.18329       96.30665      -12.70693
C        108.58220       96.38721      -13.09836
C        108.76828       96.25408      -14.60034
O        108.40999       95.22445      -15.15603
C        109.38609       95.29683      -12.37995
C        110.85599       95.54674      -12.41935
O        111.64888       94.71178      -11.74327
O        111.31688       96.58884      -12.86072
H        106.88270       95.53762      -12.08727
H        108.95585       97.36720      -12.73771
H        109.14451       94.29165      -12.78502
H        109.12097       95.30868      -11.29909
N        109.32507       97.26748      -15.32213
C        109.48978       97.20223      -16.77417
C        110.63074       96.28382      -17.20918
O        110.74105       96.03335      -18.40163
C        109.72189       98.60725      -17.36474
C        108.56301       99.55970      -17.03148
C        108.76686      100.93176      -17.67354
C        107.63333      101.88312      -17.27063
N        107.79312      103.18690      -17.91035
H        109.57969       98.13120      -14.82317
H        108.53864       96.81722      -17.20652
H        109.80217       98.52268      -18.47131
H        110.67504       99.02693      -16.97351
H        108.48796       99.69495      -15.93384
H        107.60761       99.12401      -17.39808
H        108.78650      100.81640      -18.77939
H        109.73694      101.36103      -17.33900
H        107.63773      102.01247      -16.16446
H        106.65363      101.44733      -17.56834
H        107.01782      103.81579      -17.59988
H        108.70800      103.61339      -17.63673
H        107.74814      103.08071      -18.94991
N        111.52676       95.76688      -16.31909
C        112.61391       94.86167      -16.68714
C        112.39513       93.52918      -15.99536
O        112.28319       92.51909      -16.67546
C        114.00734       95.48851      -16.41499
C        114.31535       95.88875      -14.99666
O        115.37989       95.35764      -14.36579
O        113.65544       96.74649      -14.43562
H        111.43182       96.01683      -15.32898
H        112.60315       94.66484      -17.78261
H        114.10892       96.39913      -17.04373
H        114.78185       94.76319      -16.74879
N        112.25108       93.47107      -14.64401
C        111.91626       92.26613      -13.90503
C        112.91126       91.95283      -12.81009
O        112.68760       90.97458      -12.11057
H        112.32868       94.34146      -14.11267
H        111.83946       91.38500      -14.57800
H        110.92235       92.41792      -13.43228
N        114.03811       92.70123      -12.60905
C        115.05580       92.36237      -11.62037
C        115.37214       93.53740      -10.70025
O        115.06851       94.67258      -11.03413
C        116.33816       91.97060      -12.38017
C        116.07356       90.86283      -13.37344
N        116.19578       91.08657      -14.70465
O        115.72730       89.76137      -12.97394
H        114.23202       93.49994      -13.22312
H        114.71900       91.50308      -10.99925
H        117.13708       91.65418      -11.67646
H        116.70189       92.86869      -12.92835
H        116.46742       92.01357      -15.06488
H        116.00088       90.33560      -15.38330
N        116.06557       93.32423       -9.54655
C        116.58272       94.37783       -8.68040
C        115.52684       95.25713       -8.03565
O        114.66848       94.73023       -7.34390
H        116.29771       92.35123       -9.29236
H        117.30503       94.99247       -9.25721
H        117.14601       93.89447       -7.85279
N        115.60920       96.62344       -8.14348
C        114.71970       97.59188       -7.47498
C        113.31625       97.60852       -8.13447
O        112.84631       96.31290       -8.12581
C        115.37740       98.99578       -7.52830
C        116.67731       99.02967       -6.76137
C        116.67635       98.81940       -5.37097
C        117.89313       99.28862       -7.41443
C        117.86922       98.86618       -4.64712
C        119.08765       99.33257       -6.68733
C        119.08038       99.12381       -5.30339
O        120.23858       99.17655       -4.61542
H        116.41087       96.99731       -8.67385
H        114.60142       97.30043       -6.40888
H        114.74459       99.77570       -7.06659
H        115.53259       99.27462       -8.59468
H        115.75001       98.62733       -4.84401
H        117.91806       99.45602       -8.48398
H        117.84889       98.70571       -3.57640
H        120.01987       99.53279       -7.19987
H        120.27291       99.04533       -3.65689
N        112.32239       98.48566       -7.46391
C        110.99539       98.63518       -8.13231
C        111.11966       99.26575       -9.51401
O        111.80828       98.70841      -10.35634
C        110.15523       97.31303       -8.20639
C        108.74028       97.51475       -8.82776
C        110.04323       96.63839       -6.82740
C        107.80107       98.44405       -8.04990
H        112.70086       99.45172       -7.37347
H        110.40607       99.32310       -7.48975
H        110.65377       96.59969       -8.88838
H        108.24392       96.52272       -8.90976
H        108.84005       97.90581       -9.86210
H        111.04275       96.38164       -6.42425
H        109.54705       97.30239       -6.09194
H        109.46630       95.69247       -6.91334
H        106.82558       98.50079       -8.57727
H        107.61114       98.05986       -7.02770
H        108.20590       99.47178       -7.98400
N        110.39611      100.38040       -9.84357
C        110.37939      100.92831      -11.19435
C        110.55101      102.43822      -11.18168
O        109.73408      103.14046      -11.76445
C        109.06811      100.49973      -11.87701
O        109.05998      100.90170      -13.21957
H        109.75558      100.79005       -9.14759
H        111.21798      100.50493      -11.78499
H        108.19789      100.93943      -11.33955
H        109.00237       99.39470      -11.82548
H        108.25605      100.48563      -13.62527
N        111.59777      103.01372      -10.52653
C        111.84112      104.45495      -10.54502
C        113.27050      104.74810      -10.97864
O        114.07643      103.82721      -10.97521
C        111.56981      105.02030       -9.15728
H        112.23335      102.40897       -9.98288
H        111.14993      104.94051      -11.26542
H        111.73248      106.10808       -9.15800
H        110.51376      104.82434       -8.87146
H        112.23916      104.55438       -8.40353
N        113.69548      105.96721      -11.42976
C        112.87234      107.15477      -11.64952
C        113.57590      108.40402      -11.12121
O        114.77559      108.51482      -11.33544
C        112.69026      107.31586      -13.16163
H        114.67530      106.01974      -11.75295
H        111.85754      107.04747      -11.22787
H        112.17773      106.42010      -13.57417
H        112.06662      108.20758      -13.38515
H        113.67161      107.42650      -13.67206
N        112.93118      109.45559      -10.52814
C        111.48602      109.55455      -10.34145
C        111.00722      108.85092       -9.08210
O        109.80126      108.73218       -8.91394
C        111.02869      111.03645      -10.33168
C        111.52516      111.84813       -9.11677
C        111.08260      113.28013       -9.21011
O        109.89457      113.55924       -9.24056
O        111.99905      114.26656       -9.25048
H        113.50999      110.28369      -10.32522
H        110.99414      109.10468      -11.23076
H        109.91611      111.06671      -10.34126
H        111.38665      111.51856      -11.26850
H        112.63172      111.83214       -9.06022
H        111.12425      111.41287       -8.17657
N        111.87999      108.40709       -8.13003
C        111.45754      107.77257       -6.89627
H        110.35509      107.65806       -6.83179
H        111.91755      106.76598       -6.82013
H        111.79838      108.38324       -6.03490
H        112.89345      108.53609       -8.25851
Ca       112.71531       95.93670      -10.29533
O        112.28170       99.36896      -14.08560
H        111.30791       99.43653      -13.92788
H        112.37290       99.36563      -15.07083
O        116.21032       97.58393      -11.44125
H        116.54946       98.47729      -11.18170
H        116.96874       96.97150      -11.26743
O        114.14771       99.97818      -11.69958
H        114.22111      100.61664      -12.45261
H        114.24450      100.53741      -10.88839

Ca 1.0



