%chk=apoCaM-CA-Ng.loop2.water4.frame640.chk
%nprocshared=20
%mem=10GB
%nosave
#b3lyp/svp scf=(tight,noincore,xqc) Test 
#IOP(5/87=12) Density=Current Pop=(MK,readradii) iop(6/33=2) iop(6/42=6)

apoCaM-CA-Ng.loop2.water4.frame640 

   -2  1 
C         63.03604       34.96891        7.80525
C         61.91851       35.61099        7.03345
O         61.08651       34.89423        6.49652
H         63.72753       35.72815        8.22849
H         62.61588       34.37338        8.64314
H         63.61504       34.29848        7.13677
N         61.82426       36.96803        6.95842
C         60.75858       37.67156        6.25664
C         59.90887       38.39089        7.27997
O         60.44234       39.14411        8.08369
C         61.35878       38.64981        5.23287
C         60.28486       39.39503        4.48571
O         60.22321       40.73838        4.55573
O         59.46322       38.78777        3.81697
H         62.52721       37.53897        7.45389
H         60.11641       36.95586        5.69646
H         61.97218       38.08327        4.49904
H         62.01984       39.37773        5.75176
N         58.56123       38.19183        7.30969
C         57.70921       38.74965        8.35446
C         57.98274       38.01484        9.65900
O         58.62124       36.97045        9.60535
C         56.23940       38.54563        7.95274
H         58.13379       37.60594        6.57511
H         57.91949       39.83679        8.44224
H         55.52854       38.95899        8.68677
H         56.04636       39.04844        6.98208
H         56.01916       37.46141        7.83923
N         57.52781       38.41432       10.87948
C         56.85673       39.67481       11.20566
C         57.76042       40.88385       11.02309
O         58.85040       40.91620       11.56680
C         56.25639       39.66436       12.64557
C         56.94289       38.80365       13.68265
O         58.21106       38.96417       14.08615
O         56.32171       37.86725       14.15905
H         57.72169       37.75252       11.64385
H         55.97302       39.82959       10.56283
H         55.24079       39.21885       12.54943
H         56.09682       40.70298       13.01106
N         57.30776       41.97035       10.33237
C         58.03454       43.23657       10.30945
C         57.27890       44.33857        9.57859
O         56.26675       44.05639        8.95257
H         56.37814       41.90916        9.89265
H         59.03610       43.09817        9.85120
H         58.15479       43.56254       11.36084
N         57.66218       45.64967        9.62135
C         58.79139       46.17956       10.38672
C         60.11945       45.64730        9.86721
O         60.21172       45.28760        8.70105
C         58.73978       47.72775       10.34145
C         59.80926       48.41541       11.15148
N         60.65190       49.29990       10.56699
O         59.89765       48.19553       12.35020
H         57.06297       46.32259        9.11513
H         58.66368       45.87081       11.44791
H         57.75703       48.05483       10.74859
H         58.79268       48.06384        9.28254
H         60.57941       49.51609        9.56173
H         61.37112       49.78503       11.12322
N         61.19135       45.54294       10.70520
C         62.46974       44.99502       10.27363
C         63.48253       44.99043       11.40464
O         64.52058       45.62004       11.27119
H         61.08009       45.84736       11.68356
H         62.86028       45.60513        9.42871
H         62.32216       43.95522        9.91525
N         63.21940       44.32042       12.56541
C         64.09163       44.34273       13.74611
C         64.43103       42.92119       14.20821
O         64.00489       41.97295       13.56885
C         63.37571       45.12874       14.87459
C         63.05115       46.56537       14.44545
O         62.19391       44.46757       15.24561
H         62.32163       43.82432       12.64121
H         65.04566       44.86750       13.52336
H         64.06082       45.19171       15.74889
H         61.96433       44.77405       16.16140
H         62.58410       47.11399       15.28982
H         63.97958       47.09737       14.14799
H         62.34074       46.57721       13.59362
N         65.15874       42.70869       15.35519
C         65.41437       41.37852       15.91084
C         64.59228       41.21036       17.17348
O         64.79992       41.92578       18.14221
C         66.91739       41.14723       16.24456
C         67.11612       39.76308       16.94067
C         67.77207       41.25293       14.97249
C         68.51734       39.54638       17.50653
H         65.48340       43.51800       15.90004
H         65.10650       40.60054       15.18416
H         67.23401       41.94295       16.95537
H         66.85619       38.94089       16.24234
H         66.44349       39.67416       17.81955
H         67.63156       42.24254       14.49084
H         68.85012       41.15544       15.21057
H         67.48992       40.45757       14.24916
H         68.54860       38.56713       18.03158
H         69.28586       39.53423       16.71075
H         68.75226       40.34327       18.24483
N         63.64105       40.24237       17.21330
C         62.80704       39.94730       18.36376
C         62.76159       38.44732       18.67461
O         62.01778       38.09108       19.57974
C         61.42431       40.56756       18.11056
C         60.88259       40.21688       16.76672
O         60.57417       39.06617       16.49905
O         60.77818       41.17962       15.83028
H         63.43863       39.72530       16.35126
H         63.18975       40.44612       19.28077
H         61.55836       41.67167       18.12299
H         60.69853       40.31033       18.91151
N         63.55221       37.51602       18.04281
C         63.61203       36.12729       18.49874
C         63.90470       35.15369       17.34622
O         64.97576       34.56040       17.33494
C         64.66929       36.01651       19.62917
C         64.49178       34.74301       20.42767
C         65.46594       33.73013       20.43170
C         63.32701       34.57448       21.20069
C         65.26717       32.56718       21.18816
C         63.13668       33.41763       21.95759
C         64.10463       32.41253       21.95021
H         64.25655       37.82508       17.35806
H         62.63758       35.84946       18.94784
H         64.55328       36.85546       20.34879
H         65.68973       36.10557       19.19351
H         66.37152       33.83393       19.84782
H         62.56758       35.34636       21.22519
H         66.01409       31.78414       21.18654
H         62.23817       33.30372       22.55088
H         63.95288       31.51599       22.53754
N         62.99809       34.88960       16.35262
C         63.21520       33.90449       15.29409
C         64.40828       34.15197       14.38297
O         64.72244       33.27245       13.59216
C         61.93747       33.99356       14.45245
C         60.90284       34.35547       15.49153
C         61.64415       35.39568       16.33191
H         63.31884       32.91534       15.79480
H         62.01095       34.87061       13.76955
H         61.71930       33.09191       13.84076
H         59.92303       34.69381       15.09385
H         60.74128       33.44704       16.11683
H         61.65850       36.40430       15.87397
H         61.15990       35.42666       17.32955
N         65.07426       35.34081       14.37864
C         66.20347       35.60438       13.50023
C         67.39678       34.84495       14.03182
O         67.93542       34.00323       13.32711
C         66.56496       37.11234       13.37219
C         65.52325       37.98639       12.63504
C         64.34421       38.45164       13.44303
O         63.49304       39.14394       12.91316
O         64.24966       38.20683       14.75557
H         64.76369       36.06857       15.01817
H         65.95745       35.26189       12.46843
H         67.46896       37.13721       12.72265
H         66.84951       37.57342       14.33943
H         65.17501       37.45083       11.72574
H         66.03164       38.91864       12.30583
N         67.84998       35.09695       15.29324
C         68.97436       34.41511       15.89693
H         69.74634       35.16187       16.17720
H         68.63175       33.89188       16.81428
H         69.43316       33.66958       15.21499
H         67.36845       35.80577       15.86742
Ca        59.85095       40.45113       13.96553
O         62.18687       41.53409       11.11095
H         62.93733       40.99124       10.76074
H         61.53212       41.56232       10.36878
O         60.62907       37.19645       13.41772
H         61.59665       37.28114       13.60761
H         60.19355       37.33546       14.29468
O         59.85316       43.41677       13.24621
H         60.44729       43.08753       13.96421
H         59.04641       43.73618       13.72133
O         61.43349       38.71591       11.07693
H         61.90776       37.90063       10.77684
H         60.51639       38.62104       10.72253

Ca 1.0



