%chk=apoCaM-CA-Ng.loop4.water5.frame741.chk
%nprocshared=20
%mem=10GB
%nosave
#b3lyp/svp scf=(tight,noincore,xqc) Test 
#IOP(5/87=12) Density=Current Pop=(MK,readradii) iop(6/33=2) iop(6/42=6)

apoCaM-CA-Ng.loop4.water5.frame741 

   -3  1 
C        113.57161       19.36607      -10.44832
C        115.07288       19.29016      -10.53086
O        115.59204       18.26050      -10.93503
H        113.18239       18.57542       -9.77475
H        113.23365       20.35272      -10.06420
H        113.13701       19.22718      -11.46175
N        115.83278       20.37344      -10.19882
C        117.29004       20.45565      -10.31276
C        117.70629       20.13455      -11.73276
O        118.51233       19.23577      -11.94540
C        118.02775       19.55314       -9.29608
C        117.43725       19.65910       -7.92912
O        117.24130       20.83400       -7.30313
O        117.01156       18.64631       -7.40617
H        115.34686       21.22989       -9.89069
H        117.57694       21.50485      -10.08001
H        119.10523       19.82180       -9.27931
H        117.94475       18.48519       -9.60503
N        117.11551       20.78021      -12.77532
C        117.35578       20.35694      -14.14986
C        118.81185       20.61084      -14.55242
O        119.44408       21.45731      -13.93572
C        116.33930       20.98742      -15.15221
C        116.52170       22.52160      -15.26664
C        114.89864       20.58403      -14.76717
C        115.58363       23.17099      -16.28356
H        116.41579       21.50648      -12.56687
H        117.17223       19.25990      -14.13831
H        116.52809       20.55903      -16.15878
H        117.56048       22.72763      -15.60315
H        116.37217       23.01439      -14.28390
H        114.17197       20.90895      -15.53829
H        114.81694       19.47844      -14.69784
H        114.59147       21.01969      -13.79437
H        115.70507       22.69769      -17.28094
H        114.52643       23.08895      -15.95884
H        115.82588       24.25080      -16.36805
N        119.46129       19.89309      -15.51866
C        118.86725       18.78987      -16.26387
C        119.35990       17.44585      -15.76990
O        118.70841       16.46966      -16.09405
C        119.00892       18.97796      -17.78704
C        120.42181       18.97325      -18.31601
O        121.48215       18.78482      -17.50679
O        120.60842       19.13475      -19.51108
H        120.45772       20.10587      -15.67509
H        117.78209       18.75276      -16.08084
H        118.53314       19.94508      -18.05951
H        118.44965       18.16518      -18.30082
N        120.42838       17.30037      -14.92995
C        120.75989       16.02523      -14.31642
C        121.08333       14.94733      -15.32467
O        122.09830       15.03919      -15.99995
H        120.99321       18.11669      -14.65742
H        119.89248       15.71506      -13.69524
H        121.62739       16.14228      -13.63080
N        120.24275       13.88224      -15.46227
C        120.49548       12.73910      -16.33200
C        119.55686       12.69415      -17.53318
O        119.70614       11.78801      -18.34081
C        120.46908       11.43917      -15.48360
C        119.24410       11.25982      -14.61673
O        118.13789       11.13091      -15.10619
O        119.37428       11.22213      -13.27661
H        119.36804       13.87931      -14.91519
H        121.51066       12.80849      -16.78026
H        121.34203       11.47512      -14.79787
H        120.59321       10.54941      -16.13803
N        118.61236       13.65452      -17.76447
C        117.75751       13.67539      -18.94264
C        116.75180       12.54508      -18.97632
O        116.02643       12.44808      -19.95448
H        118.50745       14.42821      -17.10858
H        118.39730       13.64728      -19.85165
H        117.18206       14.62734      -18.96204
N        116.63889       11.66336      -17.94064
C        115.73172       10.52833      -17.88908
C        114.27077       10.94565      -17.78969
O        113.42320       10.06393      -17.83348
C        116.01357        9.53335      -19.04290
C        117.49305        9.09204      -19.04948
C        117.80419        7.99735      -20.03997
N        119.07046        7.52975      -20.14250
O        116.92574        7.52073      -20.74396
H        117.23748       11.78049      -17.12545
H        115.93652        9.96712      -16.94940
H        115.75310        9.96941      -20.03052
H        115.37577        8.63660      -18.88415
H        117.76955        8.71944      -18.03960
H        118.13199        9.96606      -19.29285
H        119.82402        7.92044      -19.55709
H        119.30055        6.77518      -20.80599
N        113.89334       12.24796      -17.58957
C        112.49782       12.66792      -17.48781
C        112.14564       13.27029      -16.12894
O        110.98174       13.60131      -15.95679
C        112.13738       13.65689      -18.63345
C        112.92512       14.97753      -18.56079
C        112.33335       12.99790      -20.00546
H        114.61303       12.97778      -17.50090
H        111.82723       11.78751      -17.59988
H        111.05659       13.90642      -18.54276
H        112.75108       15.48419      -17.58835
H        114.01450       14.81232      -18.69042
H        112.58404       15.66452      -19.36407
H        111.72723       12.06948      -20.07389
H        112.00416       13.68681      -20.81186
H        113.39880       12.74030      -20.17536
N        113.05614       13.43559      -15.11786
C        112.68256       14.00377      -13.81905
C        112.84920       12.98424      -12.70787
O        113.39174       11.91314      -12.92927
C        113.50127       15.27887      -13.53282
C        113.17005       16.38074      -14.50615
N        111.92475       16.91262      -14.54179
O        114.03496       16.81002      -15.25459
H        114.03542       13.14784      -15.25182
H        111.60401       14.26489      -13.80739
H        114.58558       15.03237      -13.57956
H        113.28261       15.66743      -12.51570
H        111.18890       16.57722      -13.90250
H        111.69577       17.67250      -15.19898
N        112.29554       13.24642      -11.48553
C        112.29277       12.27818      -10.38541
C        111.26856       12.65562       -9.31201
O        110.60186       13.66966       -9.45144
C        113.71524       12.10635       -9.79362
C        114.16388       13.24236       -8.89634
C        114.27289       14.56526       -9.36257
C        114.48367       12.96510       -7.55415
C        114.67856       15.58658       -8.49589
C        114.89778       13.98200       -6.69765
C        114.99121       15.29121       -7.16093
O        115.37350       16.25316       -6.30535
H        111.78979       14.13697      -11.38544
H        111.96393       11.30123      -10.80184
H        114.45652       11.95585      -10.60501
H        113.71605       11.16798       -9.19848
H        114.04174       14.81338      -10.38707
H        114.41506       11.95835       -7.16315
H        114.74959       16.60369       -8.86032
H        115.14065       13.75503       -5.66709
H        115.39532       17.17926       -6.56243
N        111.09835       11.88026       -8.19791
C        110.16950       12.24437       -7.13367
C        110.95259       12.56741       -5.86840
O        111.33068       11.63864       -5.16864
C        109.13842       11.12750       -6.86606
C        108.15813       10.93751       -8.03052
C        107.15992        9.86059       -7.71010
O        105.84841       10.15683       -7.62824
O        107.53124        8.71278       -7.52242
H        111.67205       11.03399       -8.07684
H        109.58030       13.12283       -7.42402
H        108.53909       11.40459       -5.96933
H        109.67038       10.17400       -6.65025
H        108.70027       10.66745       -8.96100
H        107.61463       11.89341       -8.20036
N        111.29337       13.84265       -5.49890
C        111.05753       15.04484       -6.30039
C        109.57902       15.35161       -6.46711
O        108.77055       14.90651       -5.66307
C        111.80204       16.24715       -5.67105
C        111.77663       17.51255       -6.53959
C        112.64806       18.58975       -5.96379
O        113.70785       19.00410       -6.67728
O        112.41599       19.06824       -4.86655
H        111.83706       13.94374       -4.62650
H        111.50869       14.85514       -7.29906
H        112.86281       15.94876       -5.54081
H        111.38486       16.46959       -4.66488
H        110.74593       17.90877       -6.63739
H        112.16121       17.25478       -7.55196
N        109.15221       16.05824       -7.55059
C        107.75455       16.33073       -7.79758
H        107.32831       16.92281       -6.96115
H        107.64464       16.91053       -8.73924
H        107.19754       15.37556       -7.90446
H        109.83979       16.39770       -8.24055
Ca       115.23431       20.62698       -6.30443
O        116.00042       17.87092       -3.96854
H        115.35394       17.32962       -3.44997
H        116.75969       17.25843       -4.13846
O        114.79293       20.14270       -2.55588
H        114.01114       19.68556       -2.15528
H        115.21785       20.61996       -1.79990
O        116.12057       22.89131       -4.30065
H        117.04238       23.25223       -4.32083
H        115.74393       23.21707       -3.44487
O        117.95609       20.23037       -3.82510
H        118.31157       19.32609       -3.63507
H        118.47137       20.82807       -3.22740
O        112.88309       21.91844       -4.29410
H        112.43091       21.40916       -3.57511
H        112.21371       21.96587       -5.02218

Ca 1.0



