%chk=apoCaM-CA-Ng.loop1.water3.frame1398.chk
%nprocshared=20
%mem=10GB
%nosave
#b3lyp/svp scf=(tight,noincore,xqc) Test 
#IOP(5/87=12) Density=Current Pop=(MK,readradii) iop(6/33=2) iop(6/42=6)

apoCaM-CA-Ng.loop1.water3.frame1398 

   0  1 
C         31.96610       91.56548       64.64072
C         31.55672       91.39623       63.20907
O         31.21679       90.29040       62.81197
H         33.01668       91.92640       64.68039
H         31.30576       92.30572       65.13625
H         31.90640       90.59909       65.18535
N         31.61234       92.46069       62.36063
C         31.34294       92.36078       60.93056
C         32.65682       92.51998       60.19731
O         32.82563       93.40353       59.36717
C         30.21889       93.32703       60.49202
C         30.47828       94.80059       60.69440
O         31.63697       95.25541       61.20904
O         29.61657       95.60302       60.37377
H         31.93756       93.36197       62.73954
H         30.98007       91.34064       60.67622
H         29.29928       93.05760       61.05553
H         30.01614       93.15882       59.41128
N         33.65011       91.63855       60.49052
C         34.97442       91.64902       59.89030
C         34.89629       91.47051       58.38257
O         35.47035       92.29907       57.69255
C         35.90972       90.60092       60.54217
C         36.05444       90.85713       62.05648
C         37.08343       89.93685       62.71587
C         37.12964       90.20527       64.22881
N         38.14783       89.38697       64.88313
H         33.43730       90.91068       61.18743
H         35.44695       92.63727       60.09680
H         36.91198       90.69499       60.06850
H         35.54788       89.56540       60.37340
H         35.08028       90.70116       62.56350
H         36.37052       91.91064       62.22128
H         38.08264       90.13046       62.26830
H         36.80953       88.87342       62.54096
H         36.13378       89.97778       64.67276
H         37.35499       91.27947       64.41347
H         39.09366       89.63056       64.50921
H         38.13076       89.58188       65.91054
H         37.95279       88.37186       64.72607
N         34.17244       90.49513       57.75278
C         33.31954       89.48986       58.38525
C         31.86172       89.90361       58.20811
O         31.61992       90.98157       57.67343
C         33.64914       88.09150       57.81885
C         33.35886       88.01036       56.35229
O         32.10564       88.21404       55.90989
O         34.26132       87.81776       55.55385
H         34.14598       90.53964       56.72042
H         33.49587       89.42420       59.47064
H         33.06165       87.30954       58.34204
H         34.72645       87.88203       58.00516
N         30.83141       89.12139       58.63416
C         29.44464       89.56386       58.57526
C         28.65298       88.86695       57.50058
O         29.19205       88.04312       56.77862
H         31.02752       88.18674       59.02671
H         29.37935       90.65105       58.35910
H         28.97449       89.40055       59.56920
N         27.35205       89.21083       57.30510
C         26.47350       88.60459       56.30425
C         25.20080       88.10607       56.99147
O         25.03307       88.40332       58.16835
C         26.14433       89.68085       55.24853
C         27.39052       90.18741       54.57803
O         28.09908       89.42495       53.94073
O         27.72970       91.48689       54.67739
H         26.96422       89.96984       57.89017
H         26.98166       87.74606       55.81401
H         25.62713       90.53171       55.74489
H         25.47872       89.29478       54.45963
N         24.22889       87.35542       56.39350
C         24.24327       86.77460       55.06090
C         25.29760       85.70792       54.94060
O         25.39650       84.87102       55.82676
H         23.39740       87.13004       56.96239
H         24.30201       87.53324       54.25973
H         23.27090       86.25494       54.91654
N         26.06664       85.61863       53.82157
C         27.04975       84.55883       53.64195
C         28.26040       84.82820       54.51424
O         28.73312       85.95441       54.53145
C         27.43770       84.40040       52.15238
C         28.28152       83.13846       51.92467
O         28.13611       85.52443       51.68259
H         25.89603       86.28372       53.05215
H         26.57540       83.58724       53.91044
H         26.50379       84.24560       51.55946
H         27.47478       86.12740       51.25500
H         27.72476       82.23789       52.26569
H         28.49909       83.01869       50.84310
H         29.23993       83.18323       52.47998
N         28.83475       83.81418       55.22227
C         30.01998       83.92106       56.07182
C         31.20549       84.47758       55.29104
O         31.24123       85.67133       55.03420
C         29.74717       84.75826       57.35564
C         28.43509       84.36916       58.08150
C         30.94884       84.73413       58.31887
C         28.36832       82.92195       58.56659
H         28.42184       82.87344       55.13069
H         30.26565       82.88587       56.39641
H         29.60836       85.80153       57.04718
H         27.57894       84.54317       57.39623
H         28.29176       85.04574       58.95290
H         31.86057       85.12608       57.82168
H         30.74588       85.38066       59.19981
H         31.16276       83.70392       58.66936
H         28.44589       82.21715       57.71397
H         29.17051       82.70974       59.30113
H         27.38940       82.75310       59.06270
N         32.22182       83.66821       54.88948
C         33.39773       84.16390       54.17644
C         33.50345       83.61163       52.76130
O         34.47988       83.94203       52.10499
C         34.67975       83.86882       54.99681
C         34.93159       82.37637       55.23643
O         34.60148       84.51397       56.24191
H         32.15479       82.66059       55.09284
H         33.35140       85.26938       54.05526
H         35.56343       84.25240       54.43041
H         35.01202       85.41050       56.13163
H         34.12678       81.92706       55.85333
H         35.00456       81.82854       54.27387
H         35.88743       82.24807       55.78685
N         32.56221       82.78486       52.21095
C         32.69921       82.22966       50.86356
C         32.68297       83.35213       49.82650
O         31.60624       83.81864       49.48664
C         31.57187       81.18551       50.59959
C         31.70146       80.47558       49.24737
O         31.52924       80.22688       51.62829
H         31.74257       82.51408       52.77272
H         33.67516       81.69674       50.82353
H         30.59537       81.71612       50.61055
H         32.42175       79.79605       51.67879
H         32.65295       79.90545       49.20055
H         30.85558       79.76511       49.12185
H         31.67031       81.20290       48.41016
N         33.85694       83.86560       49.33712
C         33.98986       84.99112       48.40383
C         33.34761       86.26114       48.94142
O         32.15599       86.26179       49.20985
C         33.46430       84.65532       46.99782
C         34.20175       83.44212       46.40978
C         33.84606       83.23222       44.93248
C         34.46789       81.95432       44.34062
N         35.93227       81.95863       44.38194
H         34.73896       83.44996       49.67172
H         35.07742       85.19531       48.27609
H         33.66324       85.53918       46.34998
H         32.36927       84.46821       47.00586
H         33.93444       82.53718       46.99744
H         35.29649       83.61473       46.48856
H         34.18093       84.11566       44.34411
H         32.74246       83.14708       44.83408
H         34.13881       81.87146       43.28112
H         34.08395       81.06625       44.88915
H         36.28475       81.09837       43.90320
H         36.30882       82.79904       43.88673
H         36.27643       81.93729       45.36804
N         34.06432       87.41421       49.08319
C         33.45517       88.60273       49.66802
C         33.28330       88.40352       51.18868
O         32.28514       89.26951       51.64029
C         34.22382       89.90036       49.34829
C         34.18760       90.21483       47.84849
C         34.87802       91.51487       47.56010
O         36.06503       91.65088       47.81000
O         34.18896       92.53848       47.02031
H         35.04070       87.44745       48.75444
H         32.44050       88.72447       49.22300
H         35.27408       89.83130       49.70331
H         33.72981       90.74303       49.88285
H         33.12662       90.29127       47.52182
H         34.67710       89.40400       47.26936
N         34.51719       88.62508       51.96879
C         35.55511       87.62586       51.71127
H         36.34597       87.70739       52.48827
H         35.13994       86.59597       51.73402
H         36.05452       87.82600       50.74427
H         34.26935       88.53444       52.97943
Ca        31.82326       88.50610       53.71769
O         31.10728       91.34303       54.08369
H         30.79839       91.49683       55.01145
H         30.27541       91.28228       53.55032
O         30.91525       85.94976       52.25188
H         31.66470       85.97673       51.61085
H         30.72438       84.98584       52.35771
O         29.45300       88.57507       51.40954
H         28.88768       89.36950       51.23804
H         29.49477       88.10521       50.53926

Ca 1.0



