%chk=apoCaM-CA-Ng.loop4.water3.frame207.chk
%nprocshared=20
%mem=10GB
%nosave
#b3lyp/svp scf=(tight,noincore,xqc) Test 
#IOP(5/87=12) Density=Current Pop=(MK,readradii) iop(6/33=2) iop(6/42=6)

apoCaM-CA-Ng.loop4.water3.frame207 

   -3  1 
C         35.36988       44.89095       57.90709
C         35.88003       46.10403       57.19393
O         36.39293       45.94424       56.10431
H         34.59461       44.40354       57.27598
H         36.20380       44.17519       58.06332
H         34.92045       45.15102       58.88602
N         35.73957       47.35431       57.72107
C         36.13038       48.58096       57.03040
C         35.39893       48.70536       55.71114
O         36.02387       48.66822       54.66768
C         37.66440       48.84294       57.02986
C         38.63424       47.83366       56.45900
O         38.83458       47.68234       55.13289
O         39.41748       47.28920       57.22145
H         35.26816       47.45243       58.63254
H         35.75745       49.44249       57.63069
H         37.93167       48.95582       58.10496
H         37.86892       49.82838       56.55628
N         34.03729       48.86460       55.73930
C         33.10504       49.07558       54.62461
C         33.29530       50.45606       53.98614
O         32.40588       51.28616       54.11399
C         33.08574       47.90318       53.60161
C         31.90653       48.02452       52.58890
C         33.03074       46.53727       54.31067
C         30.49644       47.87840       53.18135
H         33.59683       48.84784       56.67299
H         32.09924       49.09291       55.09726
H         34.03312       47.92935       53.02049
H         32.02743       47.23452       51.81816
H         31.94510       49.00368       52.07506
H         33.00154       45.71964       53.56210
H         33.93025       46.38437       54.93869
H         32.14179       46.45557       54.96916
H         29.74712       47.96978       52.36695
H         30.35529       46.88303       53.64898
H         30.27720       48.66897       53.92587
N         34.43933       50.79040       53.32750
C         34.73685       52.12485       52.82840
C         33.97876       52.46923       51.55550
O         33.42189       53.55704       51.51516
C         36.25935       52.30489       52.60137
C         37.06842       52.17728       53.87077
O         38.27945       52.32034       53.82636
O         36.47925       51.92793       55.05778
H         35.17368       50.09157       53.21736
H         34.48556       52.87831       53.61128
H         36.44306       53.32456       52.19699
H         36.64446       51.57299       51.86739
N         33.93525       51.67640       50.44242
C         34.38026       50.29002       50.38824
C         34.20407       49.70704       48.99844
O         33.13511       49.90450       48.43783
H         33.48130       52.07461       49.60499
H         33.74017       49.70710       51.06768
H         35.39639       50.18064       50.75725
N         35.13052       48.92777       48.35757
C         36.39942       48.43313       48.88277
C         36.15541       47.60469       50.14884
O         36.62846       47.99050       51.20826
C         37.45947       49.56455       49.02393
C         38.87035       49.05584       49.20531
O         39.87819       49.93865       49.33535
O         39.12269       47.86199       49.20325
H         34.87582       48.58451       47.41757
H         36.83342       47.76431       48.10862
H         37.24693       50.24906       49.85931
H         37.46233       50.16489       48.09028
N         35.43753       46.43800       50.14474
C         34.96045       45.76852       48.94643
C         33.58797       46.21157       48.51024
O         32.90417       46.92559       49.22988
H         35.35271       45.92183       51.02971
H         34.90231       44.67387       49.13010
H         35.69592       45.89282       48.12809
N         33.14060       45.82303       47.28424
C         31.85525       46.23718       46.72976
C         30.66922       45.50576       47.34979
O         29.54563       45.89506       47.05967
C         31.86633       46.10443       45.18498
C         32.01279       44.66353       44.65019
C         32.19321       44.67245       43.14991
N         31.32533       44.03588       42.33093
O         33.15282       45.25571       42.66725
H         33.79871       45.29352       46.69575
H         31.74140       47.32544       46.93714
H         32.72045       46.71490       44.81598
H         30.93440       46.54498       44.76632
H         31.12288       44.06929       44.94429
H         32.90623       44.16510       45.07488
H         30.51501       43.53026       42.70446
H         31.46726       44.04475       41.31012
N         30.82837       44.42608       48.17422
C         29.70961       43.68307       48.76039
C         29.58808       42.27790       48.17946
O         28.63986       41.58866       48.52617
C         29.82837       43.61989       50.30900
C         29.78992       45.02341       50.92275
C         31.09033       42.87133       50.77888
H         31.78092       44.08687       48.36532
H         28.74853       44.18737       48.51348
H         28.94516       43.06544       50.69858
H         30.65386       45.62846       50.57828
H         28.85040       45.54141       50.63543
H         29.82154       44.95367       52.03087
H         32.01738       43.39851       50.47405
H         31.09188       42.79230       51.88601
H         31.11419       41.84043       50.36635
N         30.49050       41.79468       47.27887
C         30.38089       40.49287       46.63605
C         31.58706       39.62356       46.96365
O         31.38202       38.47966       47.34752
C         30.22985       40.70740       45.11808
C         28.95011       41.45605       44.80551
N         27.73939       40.91302       45.07423
O         29.00538       42.56604       44.30369
H         31.27809       42.38544       46.98679
H         29.47705       39.93987       46.97607
H         30.19954       39.73101       44.58757
H         31.10821       41.27753       44.74074
H         27.65763       39.97306       45.48625
H         26.87569       41.43366       44.85783
N         32.86763       40.08892       46.85443
C         34.05035       39.25258       47.07189
C         34.85529       39.68612       48.28352
O         34.79784       40.85116       48.64056
C         34.98307       39.40101       45.85506
C         34.36000       38.95385       44.56493
C         34.11937       37.59200       44.33728
C         34.04606       39.88997       43.56528
C         33.58559       37.16815       43.11820
C         33.50029       39.46564       42.35193
C         33.27556       38.10452       42.12019
O         32.76917       37.70795       40.93600
H         33.02077       41.07323       46.58899
H         33.76029       38.18915       47.21903
H         35.92559       38.83049       45.99895
H         35.26219       40.47769       45.78086
H         34.36662       36.85939       45.09572
H         34.22213       40.94745       43.72358
H         33.42116       36.11203       42.94879
H         33.26151       40.19537       41.58845
H         32.61785       36.77467       40.72984
N         35.75562       38.80576       48.83402
C         36.78922       39.08484       49.84030
C         36.31041       39.32086       51.26920
O         36.79443       38.62248       52.15105
C         37.74104       40.21245       49.39592
C         38.49970       39.83412       48.11528
C         39.47543       40.90618       47.73116
O         40.79383       40.63357       47.68762
O         39.08048       42.02637       47.45036
H         35.78062       37.85611       48.43049
H         37.42623       38.17138       49.91133
H         38.49782       40.36850       50.19780
H         37.18916       41.16601       49.26241
H         37.79362       39.67095       47.27608
H         39.05875       38.88821       48.29320
N         35.44645       40.31730       51.60276
C         35.15307       40.70299       52.98140
C         34.52361       39.59430       53.82560
O         34.37892       39.81237       55.02124
C         34.21772       41.93730       53.01225
C         34.68787       43.18002       52.22739
C         35.93353       43.81622       52.76301
O         37.01527       43.25561       52.68861
O         35.84220       45.04233       53.30652
H         35.04081       40.87496       50.85702
H         36.11884       40.97120       53.46262
H         34.04304       42.24509       54.06728
H         33.24041       41.62998       52.58115
H         33.86982       43.92562       52.30105
H         34.82649       42.98028       51.14711
N         34.12828       38.39541       53.30368
C         33.56876       37.32555       54.10795
H         32.55178       37.07865       53.73981
H         34.21287       36.42543       54.01796
H         33.49722       37.58990       55.18427
H         34.21715       38.20989       52.29623
Ca        37.57835       46.36281       53.82233
O         39.76765       44.33197       54.31712
H         38.93170       43.97673       54.71148
H         40.46958       44.10731       54.97761
O         39.42244       45.53283       51.49514
H         38.91580       45.95736       50.76067
H         39.38459       44.56632       51.28653
O         39.11522       49.05084       52.53833
H         39.89050       49.60465       52.27052
H         38.63108       49.60438       53.20103

Ca 1.0



