%chk=apoCaM-CA-Ng.loop1.water3.frame1500.chk
%nprocshared=20
%mem=10GB
%nosave
#b3lyp/svp scf=(tight,noincore,xqc) Test 
#IOP(5/87=12) Density=Current Pop=(MK,readradii) iop(6/33=2) iop(6/42=6)

apoCaM-CA-Ng.loop1.water3.frame1500 

   0  1 
C         58.95218       87.95607       42.94445
C         60.33999       87.47614       43.24669
O         60.81632       87.72589       44.34421
H         58.24260       87.52133       43.67925
H         58.91890       89.06348       43.02088
H         58.63416       87.66252       41.92281
N         61.05677       86.77860       42.31904
C         62.41410       86.30538       42.56609
C         63.42534       86.98232       41.65142
O         64.61045       86.77125       41.87126
C         62.48031       84.77176       42.46044
C         61.59646       84.10487       43.48342
O         62.13959       83.31298       44.42775
O         60.38680       84.26942       43.46215
H         60.62563       86.57304       41.40477
H         62.73163       86.57758       43.59759
H         63.52710       84.44414       42.64324
H         62.18336       84.44205       41.44178
N         63.06048       87.84829       40.65435
C         64.02154       88.69143       39.95537
C         63.58179       90.15892       40.04950
O         63.45332       90.78559       39.00428
C         64.17543       88.29225       38.46651
C         64.80828       86.91531       38.23165
C         65.04507       86.62699       36.73079
C         66.04425       87.59852       36.06182
N         66.29498       87.22881       34.66912
H         62.06806       87.98274       40.41700
H         65.03180       88.59785       40.39810
H         64.86127       89.04219       38.02441
H         63.19309       88.35178       37.94800
H         64.13439       86.13524       38.64597
H         65.78291       86.85501       38.76352
H         64.07604       86.65958       36.18659
H         65.45538       85.59767       36.64704
H         67.00647       87.58239       36.62021
H         65.65143       88.63650       36.07160
H         66.97005       87.91077       34.25177
H         66.71008       86.27071       34.61843
H         65.40427       87.26136       34.12193
N         63.31161       90.83568       41.20636
C         63.27447       90.33583       42.58385
C         64.55524       89.67158       43.06161
O         65.57724       89.75802       42.39705
C         62.84946       91.48239       43.55043
C         63.74052       92.72277       43.50298
O         64.35590       93.19111       44.60208
O         63.86586       93.35844       42.47061
H         63.01678       91.80810       41.05353
H         62.49069       89.54924       42.62093
H         62.79786       91.08266       44.58236
H         61.82137       91.80372       43.27721
N         64.53275       88.92070       44.20736
C         65.65463       88.10962       44.66056
C         66.16576       88.53523       46.01071
O         65.62596       89.45556       46.60570
H         63.65996       88.86696       44.75632
H         66.50165       88.17058       43.94636
H         65.33365       87.04565       44.71481
N         67.27448       87.92882       46.52203
C         67.92542       88.34125       47.76491
C         68.20051       87.13619       48.65636
O         68.09293       86.01733       48.17218
C         69.26315       89.00634       47.38075
C         69.03801       90.19421       46.48836
O         68.32405       91.24588       46.93127
O         69.49228       90.20588       45.35540
H         67.73084       87.19647       45.95383
H         67.28546       89.06399       48.31266
H         69.89605       88.26104       46.84626
H         69.82547       89.34711       48.26729
N         68.60282       87.23295       49.95868
C         68.63774       88.43875       50.77455
C         67.23843       88.90934       51.08625
O         66.40233       88.07621       51.40678
H         68.85358       86.35634       50.44356
H         69.28520       89.23427       50.35912
H         69.08025       88.15913       51.75533
N         66.92135       90.23510       51.09756
C         65.57534       90.70077       51.42725
C         64.64216       90.39771       50.27578
O         65.05168       90.53049       49.13277
C         65.53369       92.20985       51.76765
C         66.42523       92.55323       52.97080
O         64.21270       92.61292       52.04333
H         67.66392       90.92472       50.90560
H         65.22544       90.17975       52.34794
H         65.88783       92.78998       50.89268
H         63.88767       92.08759       52.82246
H         67.48801       92.31389       52.76511
H         66.34957       93.63793       53.19492
H         66.10101       91.98437       53.86955
N         63.35955       90.00362       50.51598
C         62.40084       89.60954       49.48925
C         62.18640       90.79197       48.48545
O         62.94395       90.49294       47.35387
C         62.87571       88.27261       48.79483
C         63.25692       87.17876       49.82364
C         61.81742       87.74687       47.80051
C         64.05105       86.02948       49.19020
H         63.03896       89.95903       51.49542
H         61.44295       89.40174       50.01721
H         63.80974       88.49194       48.23733
H         62.35204       86.79904       50.34328
H         63.93478       87.60641       50.58882
H         62.18325       86.85568       47.25348
H         60.88258       87.48156       48.33701
H         61.56989       88.49789       47.02565
H         63.46130       85.48064       48.43115
H         64.97543       86.42629       48.71290
H         64.35525       85.30927       49.97754
N         60.77292       90.94178       48.10887
C         60.49097       91.87866       46.99161
C         60.21239       93.33526       47.38271
O         59.82847       94.07909       46.48861
C         59.29507       91.31901       46.17653
C         57.98912       91.26523       46.97609
O         59.59781       90.02970       45.71791
H         60.16540       91.12802       48.93924
H         61.33738       91.90322       46.27548
H         59.10183       91.97475       45.29375
H         60.26599       90.14215       44.99194
H         58.08994       90.60009       47.85817
H         57.69475       92.28026       47.31685
H         57.17619       90.87029       46.33054
N         60.37639       93.83889       48.64352
C         59.95227       95.19918       48.99172
C         61.14742       96.14071       49.11163
O         61.96539       95.98166       50.00460
C         59.06416       95.18111       50.25825
C         57.78896       94.35511       50.02112
O         59.78602       94.64544       51.33832
H         60.79483       93.25280       49.37909
H         59.31250       95.60940       48.18020
H         58.76906       96.23072       50.49021
H         59.23601       94.78459       52.15314
H         58.03753       93.29794       49.78728
H         57.14912       94.37074       50.92878
H         57.20441       94.78211       49.17837
N         61.29403       97.14577       48.19165
C         62.38298       98.11864       48.10075
C         63.73910       97.46936       47.88291
O         64.23067       96.77898       48.76387
C         62.44894       99.09914       49.28455
C         61.18012       99.95520       49.41186
C         61.42426      101.12869       50.37068
C         60.18288      102.01865       50.50438
N         60.47450      103.19455       51.32493
H         60.57793       97.22671       47.45337
H         62.17294       98.74648       47.20476
H         63.29952       99.78602       49.07050
H         62.66099       98.57774       50.24271
H         60.33277       99.32298       49.75595
H         60.92400      100.38483       48.41789
H         62.25686      101.74497       49.96276
H         61.72021      100.75076       51.37320
H         59.35814      101.43303       50.96721
H         59.85238      102.35806       49.49720
H         60.80386      102.90421       52.27396
H         61.20963      103.77799       50.86166
H         59.60649      103.76850       51.42487
N         64.41331       97.68687       46.71578
C         65.74714       97.17101       46.43881
C         65.71596       96.02757       45.42965
O         66.22034       94.97360       45.79158
C         66.70602       98.29044       45.97992
C         66.91321       99.38162       47.03603
C         67.86617      100.42738       46.52506
O         69.01027      100.12483       46.22317
O         67.46080      101.70487       46.39439
H         63.96521       98.26854       45.99750
H         66.19083       96.74812       47.36992
H         66.33379       98.77586       45.06151
H         67.69353       97.82962       45.75257
H         67.32885       98.93712       47.96561
H         65.93924       99.86102       47.27345
N         65.19500       96.08187       44.16466
C         64.48990       97.18890       43.55587
H         63.55216       97.40365       44.10153
H         65.12865       98.08291       43.46863
H         64.18809       96.90726       42.52462
H         65.29055       95.24131       43.57813
Ca        64.07449       92.20980       46.54570
O         66.98570       92.16905       44.18305
H         67.90811       91.91454       43.93248
H         66.56503       91.32355       44.48017
O         67.21291       93.49130       48.64552
H         66.90255       94.21799       49.24179
H         67.96667       93.89118       48.14411
O         63.47774       93.85542       48.80816
H         64.45754       93.96940       48.73870
H         63.33666       93.44162       49.69525

Ca 1.0



