%chk=apoCaM-CA-Ng.loop3.water3.frame519.chk
%nprocshared=20
%mem=10GB
%nosave
#b3lyp/svp scf=(tight,noincore,xqc) Test 
#IOP(5/87=12) Density=Current Pop=(MK,readradii) iop(6/33=2) iop(6/42=6)

apoCaM-CA-Ng.loop3.water3.frame519 

   0  1 
C         70.53089       58.39587       59.96420
C         70.01984       56.99378       59.82321
O         69.24100       56.72419       58.91963
H         71.63670       58.39513       59.85592
H         70.09813       59.05587       59.18289
H         70.26387       58.79444       60.96481
N         70.44701       56.03175       60.68496
C         70.05514       54.63426       60.56880
C         68.55633       54.46454       60.76732
O         68.03528       54.84955       61.80475
C         70.86273       53.77633       61.56706
C         70.70653       52.29248       61.36395
O         71.39875       51.44237       62.14557
O         69.98056       51.84494       60.49063
H         71.11883       56.30337       61.42047
H         70.33559       54.29807       59.55269
H         70.58501       54.04413       62.60901
H         71.94078       53.99908       61.42526
N         67.80832       53.87898       59.78951
C         66.36235       53.69161       59.85935
C         65.96279       52.85091       61.06107
O         65.12598       53.29490       61.83478
C         65.86461       53.02620       58.55436
C         64.33145       52.93888       58.47772
C         63.88716       52.28677       57.16217
C         62.35695       52.24914       57.05043
N         61.93976       51.61705       55.79899
H         68.29713       53.55762       58.93932
H         65.87944       54.69271       59.93044
H         66.30612       52.00964       58.45899
H         66.21364       53.63702       57.69216
H         63.91007       53.96649       58.53991
H         63.93832       52.33944       59.32741
H         64.28669       51.24971       57.11552
H         64.29602       52.86565       56.30499
H         61.95865       53.28792       57.08569
H         61.93160       51.68089       57.90737
H         60.89552       51.61927       55.74507
H         62.32133       52.14732       54.98204
H         62.27801       50.62783       55.76638
N         66.52575       51.62715       61.27618
C         66.12889       50.73608       62.36748
C         67.16572       50.65486       63.48140
O         66.91424       49.96120       64.45704
C         65.76006       49.34375       61.80581
C         66.88695       48.58602       61.14374
O         68.13123       49.09270       61.06490
O         66.66580       47.48330       60.67076
H         67.27421       51.32561       60.63691
H         65.21319       51.13182       62.85918
H         64.94457       49.47417       61.06171
H         65.36811       48.71521       62.63483
N         68.31598       51.38419       63.44903
C         69.25602       51.44573       64.55639
C         69.99682       50.16127       64.87492
O         70.75128       50.19597       65.83684
H         68.49314       52.00421       62.65177
H         68.70423       51.77374       65.46408
H         70.02124       52.22111       64.33792
N         69.85844       49.00361       64.15780
C         70.54274       47.76570       64.53553
C         71.46262       47.25768       63.43701
O         71.41876       47.74522       62.31840
C         69.49830       46.68554       64.88143
C         68.60718       47.11604       66.02073
N         67.26967       47.23654       65.84798
O         69.09923       47.35461       67.11358
H         69.23499       48.97775       63.34135
H         71.18264       47.93633       65.42840
H         70.00381       45.74129       65.17694
H         68.88508       46.47546       63.97677
H         66.83214       47.04122       64.93563
H         66.66629       47.53082       66.63035
N         72.35169       46.26404       63.72406
C         73.25374       45.64570       62.76403
C         74.17077       46.63570       62.07905
O         74.83604       47.40788       62.75456
H         72.39336       45.91233       64.69320
H         72.66228       45.08110       62.01227
H         73.88684       44.91229       63.30967
N         74.28861       46.62228       60.71780
C         75.15817       47.52801       59.96738
C         74.69672       48.97506       60.05773
O         73.70194       49.26305       60.70702
C         75.26639       47.06643       58.48583
C         76.22737       45.91191       58.31803
C         77.58680       46.09772       58.63514
C         75.80940       44.67169       57.80982
C         78.50831       45.06657       58.45295
C         76.73781       43.63771       57.62572
C         78.09084       43.83450       57.94594
O         78.99857       42.85403       57.76502
H         73.76011       45.90653       60.19523
H         76.17407       47.51431       60.41605
H         75.68062       47.86573       57.83998
H         74.25559       46.83241       58.09022
H         77.93972       47.04945       59.01302
H         74.77220       44.50633       57.54813
H         79.55045       45.23110       58.69841
H         76.40755       42.68674       57.22796
H         78.75951       41.98883       57.40440
N         75.44762       49.94639       59.45505
C         75.25532       51.38940       59.55679
C         73.92145       51.86350       59.01507
O         72.90036       51.52398       59.58873
C         75.42829       51.87644       61.03040
C         75.26092       53.41570       61.18508
C         76.77011       51.40846       61.61785
C         76.25686       54.26493       60.38950
H         76.28257       49.65323       58.92566
H         76.06205       51.85961       58.95458
H         74.63079       51.41691       61.65476
H         75.35360       53.67912       62.26083
H         74.23864       53.71032       60.86960
H         76.86136       51.74472       62.67240
H         76.83034       50.29978       61.61679
H         77.62576       51.80228       61.03296
H         77.29980       54.05502       60.69979
H         76.15251       54.09231       59.29952
H         76.05013       55.33918       60.57802
N         73.86690       52.75309       57.97864
C         72.65134       53.50286       57.67635
C         72.00017       53.15114       56.36050
O         70.90485       53.65066       56.13739
C         72.94814       55.00876       57.78157
O         73.90133       55.38193       56.82230
H         74.73010       52.99382       57.46922
H         71.88137       53.26336       58.43125
H         73.33746       55.21577       58.80564
H         72.01725       55.59734       57.62695
H         74.23279       56.27864       57.08947
N         72.54972       52.29567       55.45392
C         71.80842       51.87379       54.26980
C         70.66292       50.96482       54.71525
O         70.95555       49.93414       55.30333
C         72.72091       51.11995       53.29810
H         73.49757       51.92185       55.61554
H         71.45901       52.77833       53.72877
H         73.15015       50.21325       53.77489
H         72.14781       50.81896       52.39523
H         73.55388       51.78187       52.97731
N         69.33967       51.24936       54.53272
C         68.83882       52.42799       53.84091
C         69.16891       52.34755       52.35704
O         69.31663       51.23847       51.86215
C         67.31622       52.53031       54.00931
H         68.65386       50.58782       54.93174
H         69.28908       53.31039       54.32561
H         66.92438       53.44349       53.51636
H         66.81411       51.64197       53.56724
H         67.05582       52.58033       55.08893
N         69.27519       53.43651       51.54045
C         69.16781       54.83144       51.94812
C         70.47055       55.53867       51.62116
O         71.10275       56.05937       52.52977
C         67.95844       55.47801       51.24948
C         67.73609       56.93419       51.69675
C         66.49985       57.55005       51.09593
O         65.77921       56.91938       50.33730
O         66.17750       58.81887       51.40959
H         69.46146       53.25347       50.54199
H         68.98576       54.92650       53.03422
H         67.05603       54.88786       51.52183
H         68.07983       55.43579       50.14539
H         68.61252       57.55200       51.40627
H         67.63013       56.96498       52.80295
N         70.93812       55.58059       50.33971
C         72.18172       56.21919       49.95855
H         72.85749       55.46312       49.50573
H         71.97342       57.00821       49.20621
H         72.70408       56.68350       50.82085
H         70.39617       55.13177       49.58723
Ca        70.85176       49.16059       59.91808
O         69.11757       50.40142       57.81087
H         69.17051       51.38968       57.78626
H         68.14812       50.20257       57.83097
O         72.57620       48.65139       57.53583
H         71.86714       48.03596       57.22098
H         72.14699       49.54232       57.56383
O         69.80763       46.53153       58.88238
H         69.29117       46.99083       58.17320
H         69.34454       46.77488       59.72313

Ca 1.0



