%chk=apoCaM-CA-Ng.loop4.water2.frame25.chk
%nprocshared=20
%mem=10GB
%nosave
#b3lyp/svp scf=(tight,noincore,xqc) Test 
#IOP(5/87=12) Density=Current Pop=(MK,readradii) iop(6/33=2) iop(6/42=6)

apoCaM-CA-Ng.loop4.water2.frame25 

   -3  1 
C         84.82749       53.72736       38.99137
C         85.26465       54.38675       37.71624
O         84.42118       54.69909       36.89762
H         83.72263       53.60954       39.01926
H         85.29775       52.72589       39.07556
H         85.13697       54.35137       39.85656
N         86.58526       54.64156       37.50361
C         87.16888       55.32404       36.34589
C         86.73653       56.81211       36.21321
O         85.83782       57.11764       35.18094
C         87.19431       54.45366       35.06206
C         85.88035       53.91432       34.56122
O         84.94394       54.73044       34.05273
O         85.68146       52.70916       34.55965
H         87.24189       54.36295       38.24916
H         88.24858       55.44060       36.58853
H         87.83150       53.57359       35.30008
H         87.69289       55.01014       34.23995
N         86.46479       57.45532       37.51412
C         86.53002       58.93368       37.67992
C         87.23329       59.68800       36.54878
O         88.32884       60.18620       36.76912
C         85.11529       59.48565       38.01097
C         85.10455       61.00106       38.34767
C         84.44748       58.67672       39.14275
C         85.90354       61.40653       39.59211
H         87.16726       57.06181       38.18619
H         87.14315       59.11545       38.59399
H         84.47802       59.34390       37.11922
H         84.05292       61.30559       38.51154
H         85.48634       61.58166       37.48216
H         85.04063       58.71633       40.07887
H         83.42602       59.06472       39.34066
H         84.34123       57.60953       38.85492
H         86.98401       61.19759       39.46381
H         85.78393       62.49730       39.76226
H         85.53655       60.88566       40.49809
N         86.65269       59.83790       35.32609
C         87.29985       60.48754       34.19426
C         87.13013       62.01562       34.21790
O         88.16624       62.66633       34.23230
C         86.89173       59.79530       32.87556
C         87.40335       58.38075       32.75158
O         88.18078       57.82802       33.70335
O         87.12384       57.72813       31.75900
H         85.71741       59.44562       35.17496
H         88.40001       60.31172       34.25298
H         87.30359       60.36808       32.01671
H         85.79446       59.73756       32.80102
N         85.95008       62.71717       34.26403
C         84.60126       62.18051       34.32636
C         84.11361       61.63975       32.99683
O         84.84205       61.73922       32.01927
H         86.02343       63.74491       34.33478
H         83.90444       63.00365       34.59572
H         84.56480       61.44696       35.14539
N         82.87674       61.07762       32.83075
C         81.82864       61.00986       33.85467
C         82.23998       60.22714       35.09464
O         83.19900       59.47788       35.01247
C         80.53787       60.39909       33.24518
C         80.74195       58.99530       32.72738
O         80.58163       58.75211       31.54209
O         81.08339       57.99791       33.56610
H         82.65066       60.73548       31.88316
H         81.63547       62.06015       34.15872
H         80.20905       61.05224       32.40769
H         79.71149       60.36493       33.98138
N         81.59302       60.33818       36.29775
C         80.43761       61.18991       36.55852
C         80.74812       62.27942       37.55118
O         81.86076       62.35352       38.05069
H         81.95620       59.79275       37.09511
H         79.60439       60.56349       36.94216
H         80.08399       61.70484       35.65161
N         79.79908       63.21526       37.84313
C         80.06643       64.34717       38.72604
C         80.22642       63.94591       40.19118
O         80.61367       64.79561       40.97916
C         79.00628       65.45476       38.55085
C         77.60126       65.09013       39.06320
C         76.60355       66.20149       38.82022
N         75.33237       66.06912       39.25541
O         76.93176       67.22291       38.23297
H         78.89580       63.15697       37.34880
H         81.02515       64.80004       38.38344
H         78.95277       65.70740       37.46781
H         79.34798       66.36316       39.09469
H         77.65415       64.89721       40.15623
H         77.22892       64.17246       38.56182
H         75.04343       65.22278       39.75922
H         74.63938       66.81500       39.09583
N         79.96278       62.67594       40.62395
C         80.19222       62.22136       41.99593
C         78.93050       61.67441       42.65678
O         79.05369       61.19593       43.77937
C         81.31382       61.14118       42.01928
C         82.65231       61.71725       41.54085
C         80.95587       59.89286       41.20083
H         79.61314       61.98081       39.95261
H         80.54420       63.05947       42.63703
H         81.46516       60.82218       43.07507
H         83.44444       60.94507       41.62748
H         82.59238       62.04639       40.48504
H         82.94472       62.58544       42.16817
H         81.75179       59.12602       41.30591
H         80.00419       59.44481       41.55694
H         80.85862       60.14351       40.12522
N         77.69246       61.72489       42.07773
C         76.50381       61.18045       42.73915
C         75.62774       60.29110       41.85087
O         74.68252       59.73506       42.38810
C         75.66960       62.32372       43.36677
C         75.09114       63.31521       42.38784
N         74.32864       64.33856       42.83711
O         75.30227       63.20311       41.19266
H         77.58307       62.22680       41.18469
H         76.81785       60.53829       43.59167
H         76.31308       62.87955       44.08315
H         74.82973       61.87877       43.94394
H         74.13710       64.44883       43.84365
H         73.92481       65.02064       42.17789
N         75.82749       60.13754       40.50241
C         74.90979       59.37221       39.65369
C         75.62961       58.31998       38.83137
O         76.63347       58.63428       38.21119
C         74.17298       60.29806       38.66269
C         73.32067       61.36083       39.31398
C         73.48344       62.70856       38.95163
C         72.32821       61.02145       40.25191
C         72.67680       63.69687       39.52377
C         71.53438       62.01451       40.83313
C         71.70445       63.35624       40.46660
O         70.94335       64.32527       41.01319
H         76.60457       60.62502       40.03905
H         74.12666       58.86755       40.25628
H         73.48680       59.66900       38.05543
H         74.90735       60.76366       37.96773
H         74.23061       62.99662       38.22233
H         72.16729       59.99183       40.54199
H         72.80327       64.73021       39.23090
H         70.78077       61.73848       41.55939
H         70.26084       64.13357       41.67209
N         75.06761       57.08000       38.67293
C         75.53861       56.05984       37.73284
C         76.88368       55.45294       38.10045
O         77.35604       54.61887       37.33919
C         75.54466       56.59827       36.27423
C         74.17326       57.11259       35.80199
C         73.13427       56.02713       35.77495
O         72.02031       56.13898       36.52337
O         73.28863       55.04552       35.06556
H         74.19489       56.86936       39.17993
H         74.82027       55.21001       37.75870
H         75.86744       55.79205       35.57881
H         76.28200       57.41943       36.16879
H         74.27530       57.52026       34.77334
H         73.83545       57.93935       36.46005
N         77.53497       55.76025       39.25972
C         78.81683       55.17054       39.63265
C         78.70438       54.29307       40.86991
O         79.70510       53.68756       41.22970
C         79.82332       56.29955       39.91986
C         80.04502       57.26556       38.75241
C         80.82280       56.65301       37.63761
O         82.04466       57.13646       37.37772
O         80.37334       55.73704       36.96844
H         77.11292       56.42672       39.92120
H         79.20072       54.51586       38.82123
H         80.80711       55.87987       40.22956
H         79.42525       56.89352       40.77146
H         80.65485       58.10275       39.13878
H         79.09166       57.68885       38.37694
N         77.54456       54.17694       41.58159
C         77.42668       53.36845       42.77805
H         76.62141       52.61875       42.63696
H         78.36655       52.83178       43.02575
H         77.16492       54.02398       43.63497
H         76.70022       54.68964       41.29440
Ca        83.61562       56.69545       35.37343
O         81.34615       54.66072       33.75609
H         80.83091       54.06669       34.35813
H         81.17704       54.30178       32.84912
O         83.91051       56.88542       32.19255
H         84.05959       57.27519       31.29501
H         84.44398       57.45578       32.80012

Ca 1.0



