%chk=apoCaM-CA-Ng.loop2.water3.frame1377.chk
%nprocshared=20
%mem=10GB
%nosave
#b3lyp/svp scf=(tight,noincore,xqc) Test 
#IOP(5/87=12) Density=Current Pop=(MK,readradii) iop(6/33=2) iop(6/42=6)

apoCaM-CA-Ng.loop2.water3.frame1377 

   -2  1 
C          4.71886       42.57663       44.57923
C          5.56857       42.89391       45.77704
O          6.70417       43.30603       45.58990
H          3.81871       43.22823       44.58640
H          5.27924       42.77892       43.64091
H          4.41481       41.51110       44.58808
N          5.10545       42.79193       47.05497
C          3.76853       42.34135       47.43278
C          3.80275       41.30066       48.55760
O          2.74005       40.95677       49.05653
C          2.93176       43.57942       47.81664
C          3.49282       44.35518       48.97413
O          3.86779       45.50510       48.81431
O          3.56302       43.79767       50.19545
H          5.72353       43.12805       47.80883
H          3.23760       41.88072       46.57421
H          1.88961       43.27805       48.05589
H          2.88883       44.24380       46.92440
N          4.97257       40.75443       49.00826
C          5.06887       39.85293       50.15150
C          6.04153       40.47382       51.13848
O          7.11316       39.93436       51.38070
C          5.51580       38.46469       49.68154
H          5.85857       40.98876       48.53802
H          4.08633       39.71866       50.65662
H          4.76627       38.05110       48.97344
H          6.50281       38.51075       49.17575
H          5.58357       37.77586       50.55210
N          5.71875       41.65767       51.72555
C          6.64170       42.42989       52.55629
C          5.92074       43.49526       53.37506
O          4.70178       43.58585       53.32085
C          7.78720       43.00516       51.67807
C          7.36792       43.60059       50.34908
O          7.82674       43.10892       49.33002
O          6.53180       44.65322       50.21913
H          4.78157       42.03660       51.53149
H          7.09003       41.77148       53.33319
H          8.46852       42.15904       51.43899
H          8.40242       43.73460       52.23993
N          6.62986       44.31586       54.20694
C          6.01704       45.29888       55.08649
C          6.33431       46.71095       54.65769
O          6.97881       46.91553       53.63868
H          7.65690       44.24264       54.23913
H          6.37758       45.11976       56.12217
H          4.91023       45.20374       55.09321
N          5.87724       47.75157       55.40600
C          5.98886       49.15006       55.00416
C          6.97893       49.91876       55.86781
O          7.03855       51.13496       55.74441
C          4.58934       49.79676       55.05739
C          3.60525       49.08855       54.15742
N          2.47570       48.54049       54.66389
O          3.82628       49.01752       52.95758
H          5.39812       47.54356       56.29667
H          6.36057       49.24124       53.95907
H          4.65447       50.85533       54.72505
H          4.22268       49.78842       56.10731
H          2.26646       48.59254       55.67138
H          1.80174       48.06576       54.04551
N          7.86275       49.27837       56.68466
C          8.88764       50.00104       57.43087
C         10.04760       49.10542       57.82512
O         10.04021       47.93071       57.48361
H          7.85459       48.24957       56.70798
H          8.41688       50.48482       58.31316
H          9.33381       50.78373       56.77939
N         11.13239       49.56390       58.51012
C         11.29990       50.90432       59.06878
C         12.48516       51.63813       58.43561
O         12.34176       52.79382       58.06647
C         11.52009       50.79069       60.60397
C         10.31907       50.15300       61.31234
O         12.67067       50.03025       60.87873
H         11.88400       48.87967       58.68577
H         10.39500       51.53100       58.91766
H         11.65060       51.82520       61.00167
H         12.98315       50.28658       61.78547
H         10.50782       50.11547       62.40707
H          9.40128       50.75123       61.13478
H         10.15350       49.11461       60.95440
N         13.69787       51.02690       58.33481
C         14.96192       51.66666       57.95564
C         14.91357       52.27747       56.55147
O         14.50912       51.56963       55.63970
C         16.12878       50.61475       58.02101
C         16.23276       49.85201       59.37861
C         17.49161       51.25396       57.68935
C         16.31618       50.74947       60.61489
H         13.72331       50.03764       58.59187
H         15.18047       52.44970       58.70389
H         15.94362       49.84219       57.24045
H         17.12033       49.18409       59.34921
H         15.36954       49.17402       59.52473
H         18.28333       50.47567       57.67807
H         17.48198       51.72024       56.68351
H         17.76989       52.02465       58.43454
H         16.39691       50.11247       61.52051
H         17.20031       51.41484       60.57328
H         15.39513       51.36053       60.71862
N         15.39879       53.52763       56.24200
C         15.99328       54.47187       57.19180
C         16.92180       55.46320       56.48258
O         16.48609       56.14300       55.56542
C         14.87771       55.24226       57.93510
C         15.37485       56.15578       59.03233
O         14.48711       56.89212       59.72610
O         16.56011       56.22997       59.31682
H         15.40643       53.78893       55.24326
H         16.60396       53.92152       57.93082
H         14.17871       54.52723       58.40788
H         14.30463       55.84697       57.19884
N         18.20117       55.64687       56.93621
C         19.10727       56.67825       56.43319
C         20.49401       56.09794       56.17100
O         21.04060       55.49918       57.08454
C         19.25770       57.77682       57.51044
C         20.14757       58.90205       57.02670
C         21.52579       58.89448       57.30976
C         19.61149       59.95229       56.26280
C         22.35105       59.91667       56.83142
C         20.43947       60.97829       55.79469
C         21.80823       60.95877       56.07607
H         18.51555       55.09907       57.75091
H         18.68519       57.17468       55.53895
H         19.67442       57.34040       58.44552
H         18.26114       58.19134       57.77818
H         21.96424       58.09018       57.88690
H         18.55420       59.97617       56.03098
H         23.41249       59.89906       57.04346
H         20.02102       61.78695       55.20964
H         22.44863       61.74987       55.70730
N         21.19100       56.32820       55.01204
C         20.72274       57.05795       53.84567
C         19.56210       56.37637       53.15980
O         18.58777       57.03161       52.82731
C         21.93828       57.06161       52.90463
C         23.08649       57.05945       53.88641
C         22.60293       56.01694       54.88850
H         20.48394       58.10609       54.13587
H         22.00921       56.09629       52.35192
H         21.93672       57.88692       52.16080
H         24.08391       56.85055       53.44513
H         23.11348       58.05470       54.38839
H         22.71096       54.98750       54.48116
H         23.17110       56.12775       55.83744
N         19.61724       55.03469       52.92461
C         18.59510       54.31063       52.18577
C         18.74049       54.65480       50.70976
O         19.80808       54.40952       50.16532
C         18.77270       52.78819       52.38345
C         18.53588       52.37768       53.84852
C         18.76475       50.90761       54.04650
O         19.70750       50.48447       54.91060
O         18.09413       50.08978       53.43717
H         20.42940       54.51034       53.28232
H         17.59312       54.56891       52.58770
H         19.79780       52.48722       52.07011
H         18.03845       52.24889       51.74468
H         17.49235       52.62434       54.14110
H         19.22404       52.93365       54.52023
N         17.74933       55.22568       49.96976
C         16.44420       55.56165       50.49028
H         15.93379       54.64623       50.85612
H         16.53706       56.30152       51.31150
H         15.82597       56.01209       49.68492
H         17.93530       55.43076       48.97533
Ca         5.32471       45.86330       51.69148
O          2.83003       48.03422       50.04165
H          2.88068       48.06732       49.05320
H          1.86016       48.03840       50.24031
O          6.07246       48.57456       50.61791
H          7.03897       48.36016       50.63873
H          6.00416       49.36665       50.02819
O          2.34153       45.72397       52.74321
H          2.51644       45.33937       53.63875
H          1.98468       44.96810       52.21302

Ca 1.0



