%chk=apoCaM-CA-Ng.loop3.water5.frame86.chk
%nprocshared=20
%mem=10GB
%nosave
#b3lyp/svp scf=(tight,noincore,xqc) Test 
#IOP(5/87=12) Density=Current Pop=(MK,readradii) iop(6/33=2) iop(6/42=6)

apoCaM-CA-Ng.loop3.water5.frame86 

   0  1 
C         60.26121       77.20933       88.03585
C         61.20944       78.35482       88.23158
O         61.83377       78.77250       87.26806
H         59.47519       77.50066       87.31047
H         60.81545       76.33125       87.64279
H         59.76963       76.92082       88.98861
N         61.37601       78.91257       89.46431
C         62.28231       80.02008       89.74300
C         63.71223       79.61595       89.44134
O         64.38345       80.25465       88.64139
C         61.84656       81.30973       89.01125
C         60.46166       81.72446       89.42276
O         60.19536       82.00347       90.71364
O         59.57437       81.81782       88.59008
H         60.84208       78.52878       90.25905
H         62.24310       80.23987       90.83398
H         61.88739       81.17039       87.91035
H         62.54359       82.13469       89.27461
N         64.25125       78.55490       90.10285
C         65.64764       78.15378       89.96012
C         65.99871       77.68165       88.55537
O         67.17920       77.63312       88.23808
C         66.00412       77.10139       91.03349
C         65.30898       75.73959       90.81827
C         65.30691       74.86403       92.08559
C         66.68033       74.59785       92.72322
N         67.57979       73.86948       91.83152
H         63.65476       78.06962       90.79065
H         66.25377       79.06194       90.17692
H         65.69007       77.52886       92.01138
H         67.10349       76.94251       91.07104
H         65.78637       75.21419       89.96308
H         64.24019       75.88676       90.55557
H         64.81546       73.89559       91.84644
H         64.68176       75.37497       92.85074
H         66.51734       73.99429       93.64406
H         67.15066       75.55536       93.03569
H         67.14774       72.95972       91.55072
H         67.79779       74.44139       90.98507
H         68.47215       73.67733       92.34180
N         65.03690       77.28674       87.66958
C         65.34546       76.86208       86.30327
C         65.74389       78.08204       85.47599
O         65.58397       79.19975       85.95045
C         64.10961       76.11479       85.74160
C         64.27691       75.33095       84.46124
O         64.44158       75.91820       83.26015
O         64.16399       74.11551       84.49945
H         64.05788       77.24807       87.98995
H         66.18463       76.13270       86.35500
H         63.25327       76.80878       85.65087
H         63.83274       75.36499       86.51726
N         66.29548       77.95427       84.23894
C         66.67402       79.10091       83.42882
C         65.47049       79.93248       83.05363
O         65.44850       81.11488       83.36543
H         66.48818       77.01529       83.86525
H         67.15472       78.75087       82.49365
H         67.42009       79.71704       83.97854
N         64.42842       79.36771       82.37803
C         63.23836       80.10849       81.96107
C         61.97143       79.62870       82.66265
O         60.92340       80.21453       82.42538
C         63.06900       80.04898       80.42777
C         62.74242       78.66592       79.90703
N         61.55117       78.42313       79.31196
O         63.55480       77.76047       80.01662
H         64.48816       78.36377       82.16057
H         63.35450       81.18164       82.22955
H         63.98895       80.42547       79.93049
H         62.24360       80.74219       80.15422
H         60.84716       79.16791       79.20926
H         61.32362       77.48325       78.95933
N         61.98416       78.60491       83.56319
C         60.80785       78.19712       84.31201
C         59.72264       77.55459       83.47979
O         59.86581       77.38021       82.27758
H         62.86840       78.13308       83.78920
H         60.39659       79.08066       84.84687
H         61.10470       77.44413       85.07018
N         58.58081       77.16641       84.11433
C         57.44519       76.50739       83.47079
C         57.83987       75.12241       82.95188
O         58.96169       74.69088       83.17115
C         56.28491       76.45649       84.50767
C         54.96303       75.90102       84.03208
C         54.28253       76.47701       82.94366
C         54.38678       74.80310       84.69434
C         53.05690       75.95102       82.51966
C         53.15926       74.28619       84.27469
C         52.49034       74.85749       83.18385
O         51.30404       74.36810       82.77010
H         58.51520       77.37600       85.12256
H         57.12153       77.13395       82.61127
H         56.08665       77.49809       84.84329
H         56.63705       75.88239       85.39339
H         54.70291       77.32494       82.41858
H         54.88368       74.34765       85.54176
H         52.54482       76.39581       81.67567
H         52.72920       73.44288       84.80042
H         50.87482       73.62029       83.21038
N         56.95201       74.37493       82.23958
C         57.23530       73.07006       81.65255
C         56.94700       73.17769       80.16075
O         57.84340       72.97048       79.35539
C         56.36920       71.97333       82.34908
C         56.69764       71.92617       83.86657
C         56.60353       70.59580       81.69663
C         55.80672       70.97559       84.66980
H         56.01461       74.75431       82.08250
H         58.30471       72.79252       81.79565
H         55.29471       72.23653       82.23316
H         56.54995       72.93458       84.30360
H         57.76244       71.64256       84.01640
H         55.94957       69.82061       82.14335
H         56.35275       70.62489       80.61929
H         57.66372       70.28279       81.80738
H         55.94837       69.92065       84.36176
H         56.07341       71.04600       85.74575
H         54.73893       71.25792       84.55239
N         55.70130       73.53926       79.73567
C         55.32861       73.73448       78.33925
C         55.45367       72.45485       77.54915
O         55.97869       72.49762       76.44486
C         53.88547       74.25112       78.24027
O         53.78320       75.47860       78.90985
H         54.97493       73.70650       80.44742
H         55.97754       74.51608       77.88257
H         53.18348       73.51561       78.69263
H         53.63435       74.39639       77.16410
H         52.87677       75.82941       78.71184
N         55.02012       71.26982       78.07032
C         55.10277       69.99184       77.37788
C         56.48916       69.77746       76.78920
O         56.60681       69.55613       75.59199
C         53.99455       69.90357       76.31896
H         54.64563       71.26103       79.03144
H         54.90173       69.18198       78.11440
H         54.11728       70.68963       75.54476
H         54.01095       68.90583       75.82976
H         53.00315       70.03300       76.80394
N         57.59443       69.84784       77.58575
C         58.94542       69.67700       77.05184
C         59.99405       69.56034       78.14445
O         59.71752       69.82296       79.30584
C         59.31838       70.83833       76.11515
H         57.45121       69.99883       78.59348
H         58.96123       68.71219       76.49818
H         58.61333       70.92396       75.26478
H         59.30271       71.79761       76.67691
H         60.33342       70.69198       75.69022
N         61.22890       69.07080       77.81911
C         62.29794       68.79816       78.77557
C         61.91167       67.75136       79.82539
O         62.72625       67.49219       80.70153
C         62.81348       70.08951       79.44976
C         63.32394       71.13396       78.44213
C         64.00394       72.25621       79.17893
O         65.17786       72.51357       78.96544
O         63.33413       72.92612       80.13431
H         61.41703       68.83435       76.83336
H         63.16197       68.37417       78.21570
H         63.66804       69.80571       80.10430
H         62.02887       70.54405       80.09203
H         62.47340       71.53064       77.84699
H         64.05466       70.66406       77.74700
N         60.71694       67.08837       79.80824
C         60.35392       66.13373       80.83214
H         59.34650       65.71570       80.61888
H         61.08824       65.30193       80.85766
H         60.32255       66.63767       81.82180
H         60.03240       67.24039       79.05735
Ca        64.26074       74.44169       81.54528
O         62.27719       75.09153       78.66356
H         61.36950       74.70452       78.58244
H         62.51125       75.37755       77.74535
O         66.59650       76.68215       80.93143
H         67.46030       76.56783       81.40160
H         66.72985       77.47686       80.35598
O         67.15308       73.63049       82.37241
H         67.44225       74.01611       81.50767
H         66.60807       72.84312       82.12040
O         61.45103       74.10784       82.12402
H         60.99024       73.91982       81.26804
H         61.54621       75.09354       82.14314
O         65.41438       75.92172       78.18682
H         65.46829       75.20695       78.86946
H         66.30678       75.92211       77.75821

Ca 1.0



