%chk=apoCaM-CA-Ng.loop2.water4.frame1265.chk
%nprocshared=20
%mem=10GB
%nosave
#b3lyp/svp scf=(tight,noincore,xqc) Test 
#IOP(5/87=12) Density=Current Pop=(MK,readradii) iop(6/33=2) iop(6/42=6)

apoCaM-CA-Ng.loop2.water4.frame1265 

   -2  1 
C         49.88141       59.83865       22.44793
C         49.04192       59.67561       21.20480
O         49.44672       58.89358       20.35738
H         50.89299       60.18874       22.14931
H         49.48702       60.56709       23.17755
H         49.98360       58.85862       22.95797
N         47.89223       60.37212       20.95656
C         47.28721       61.34935       21.85689
C         46.40244       62.35127       21.11852
O         45.95539       62.07012       20.02263
C         46.55180       60.65596       23.04171
C         45.56698       59.52668       22.74483
O         45.06471       58.94768       23.69562
O         45.28744       59.06764       21.50177
H         47.45474       60.22166       20.03698
H         48.10187       61.99313       22.25088
H         46.04290       61.43244       23.65318
H         47.32044       60.18742       23.68806
N         46.21157       63.60747       21.62770
C         45.33531       64.63241       21.04338
C         45.34349       64.66057       19.52700
O         46.41123       64.65029       18.92866
C         45.69519       66.02176       21.57437
H         46.71498       63.85103       22.49570
H         44.29841       64.41610       21.37808
H         46.72042       66.30953       21.25729
H         44.97464       66.77035       21.17684
H         45.63639       66.03907       22.68247
N         44.15908       64.70041       18.84593
C         44.06559       64.59694       17.39498
C         43.58394       65.88080       16.76773
O         43.09548       66.76971       17.45328
C         43.09271       63.44664       17.03252
C         43.60069       62.15121       17.59041
O         42.92384       61.53529       18.57577
O         44.68182       61.71286       17.23298
H         43.27989       64.79175       19.37945
H         45.06883       64.39403       16.96288
H         42.95998       63.34991       15.93477
H         42.09441       63.67018       17.47836
N         43.71518       66.03240       15.42138
C         43.18942       67.16034       14.68577
C         41.69161       67.09379       14.71534
O         41.04718       68.04972       15.12321
H         44.19328       65.29538       14.88071
H         43.50605       67.07546       13.62286
H         43.58378       68.11979       15.08772
N         41.06951       65.95854       14.28371
C         39.62085       65.81985       14.24244
C         38.98344       65.75588       15.64030
O         37.76416       65.71269       15.71855
C         39.22617       64.64050       13.31269
C         39.32810       63.25315       13.90008
N         38.26467       62.41438       13.82631
O         40.37121       62.86835       14.40626
H         41.65714       65.19314       13.91610
H         39.23985       66.72323       13.71748
H         39.86687       64.68838       12.40277
H         38.18266       64.79569       12.96849
H         37.38803       62.71016       13.36979
H         38.31753       61.45528       14.19875
N         39.73969       65.73471       16.78513
C         39.18723       65.70004       18.13608
C         38.59112       67.02425       18.56717
O         38.63469       67.96769       17.78982
H         40.76361       65.70743       16.71781
H         40.00871       65.47325       18.84865
H         38.45102       64.89718       18.20179
N         38.06023       67.22898       19.81326
C         37.93950       66.22674       20.87737
C         36.90380       65.16206       20.57394
O         35.79149       65.48260       20.17840
C         37.52465       66.86478       22.22942
C         38.62254       67.75031       22.81328
O         36.34000       67.61186       22.09004
H         37.75214       68.19037       20.02868
H         38.92859       65.74961       21.05768
H         37.38351       66.04372       22.97830
H         35.60781       67.09686       22.52029
H         39.53825       67.14472       22.98952
H         38.86668       68.59017       22.13282
H         38.28632       68.15964       23.78972
N         37.18892       63.86704       20.88230
C         36.24529       62.75773       20.80700
C         36.12911       62.14171       22.20507
O         37.15831       61.78545       22.76229
C         36.76840       61.73737       19.76097
C         36.67361       62.37363       18.35717
C         35.98400       60.41641       19.78997
C         37.51765       61.65776       17.31158
H         38.13465       63.64880       21.23314
H         35.25815       63.10624       20.45071
H         37.83130       61.51510       20.00705
H         37.05184       63.39877       18.39809
H         35.61189       62.44554       18.03305
H         34.90118       60.59475       19.61802
H         36.35403       59.70500       19.02682
H         36.12915       59.92499       20.76787
H         38.58296       61.65391       17.63002
H         37.17517       60.61921       17.14361
H         37.44081       62.21668       16.35855
N         34.93804       61.93020       22.84572
C         33.62990       62.21598       22.25908
C         32.54054       61.34076       22.88130
O         32.81382       60.58186       23.80007
C         33.33356       63.73594       22.38288
C         32.26075       64.26617       21.46558
O         32.06244       63.74912       20.37646
O         31.71051       65.46711       21.72408
H         34.98662       61.46480       23.76533
H         33.65914       61.89469       21.19909
H         34.23715       64.32913       22.13752
H         33.08834       63.97452       23.44060
N         31.27465       61.36994       22.38758
C         30.19667       60.50853       22.83832
C         29.64682       59.79216       21.61051
O         29.23519       60.48845       20.69036
C         29.11546       61.39129       23.49056
C         27.97790       60.58514       24.06086
C         26.68866       60.69608       23.51591
C         28.19232       59.72644       25.15330
C         25.63256       59.95295       24.04983
C         27.13168       58.99025       25.68875
C         25.85314       59.10175       25.13597
H         31.04752       62.02146       21.63049
H         30.56327       59.79008       23.59879
H         28.74206       62.11431       22.73163
H         29.56310       61.98761       24.31628
H         26.50198       61.35244       22.67512
H         29.17662       59.63437       25.59591
H         24.64260       60.03919       23.62174
H         27.30062       58.33506       26.53356
H         25.03290       58.53056       25.55031
N         29.59550       58.43161       21.47841
C         29.94347       57.45165       22.49686
C         31.42693       57.10102       22.54536
O         31.77480       56.24898       23.35112
C         29.16129       56.21435       22.02685
C         29.29985       56.31648       20.51830
C         29.03435       57.79863       20.29828
H         29.57497       57.74279       23.50348
H         29.48849       55.24840       22.46843
H         28.08313       56.35945       22.26493
H         30.36331       56.10711       20.25776
H         28.65566       55.64146       19.91737
H         29.51506       58.13540       19.35327
H         27.94370       58.01801       20.26897
N         32.34534       57.64717       21.69706
C         33.70591       57.11896       21.56759
C         34.12140       57.06964       20.09933
O         33.80492       57.99507       19.36529
C         34.73752       57.90366       22.39111
C         34.55463       57.71914       23.90449
C         35.73351       58.27722       24.65027
O         36.84629       57.80331       24.47649
O         35.57027       59.28212       25.52975
H         32.03381       58.36033       21.02167
H         33.73924       56.08310       21.95729
H         34.71191       58.97997       22.13476
H         35.73787       57.49198       22.12977
H         34.48651       56.63781       24.15463
H         33.61702       58.21120       24.23252
N         34.86013       56.04758       19.57488
C         35.39436       54.94655       20.35052
H         36.09558       55.33360       21.12076
H         34.58196       54.36540       20.83185
H         35.96157       54.25916       19.68794
H         35.08882       56.07141       18.56886
Ca        44.14131       60.30833       20.01713
O         42.24321       60.63838       21.89913
H         41.44816       61.22501       21.87397
H         42.94612       61.17899       22.34114
O         46.37757       58.61567       18.36732
H         47.08671       58.01366       18.70709
H         46.71258       58.92420       17.48836
O         43.36065       58.73216       17.11125
H         43.79571       58.15189       16.43723
H         42.49992       58.99312       16.69703
O         42.01647       57.95277       20.20116
H         42.37746       57.72321       21.09430
H         41.04111       58.04628       20.34392

Ca 1.0



