%chk=apoCaM-CA-Ng.loop1.water3.frame1428.chk
%nprocshared=20
%mem=10GB
%nosave
#b3lyp/svp scf=(tight,noincore,xqc) Test 
#IOP(5/87=12) Density=Current Pop=(MK,readradii) iop(6/33=2) iop(6/42=6)

apoCaM-CA-Ng.loop1.water3.frame1428 

   0  1 
C         82.85239       69.46393       31.40325
C         84.19437       70.05467       31.10084
O         84.28602       70.88629       30.20974
H         82.07944       69.87972       30.72113
H         82.89343       68.36339       31.25718
H         82.57196       69.68863       32.45170
N         85.29804       69.62701       31.77939
C         86.64902       70.08584       31.46734
C         87.39856       68.96633       30.77577
O         88.50669       68.61370       31.15654
C         87.35564       70.65060       32.72384
C         87.56680       69.67406       33.86038
O         87.22143       68.50570       33.77839
O         88.16192       70.10296       34.98910
H         85.17244       68.88942       32.48757
H         86.60474       70.91014       30.72300
H         86.75101       71.49959       33.10810
H         88.35079       71.04632       32.42588
N         86.79575       68.34540       29.72654
C         87.38955       67.25582       28.97554
C         88.49507       67.81065       28.08344
O         89.61994       67.36035       28.24981
C         86.25869       66.43604       28.31454
C         86.69881       65.13735       27.62680
C         85.46775       64.33465       27.15058
C         84.65646       63.71490       28.31199
N         83.42748       63.09251       27.82338
H         85.83924       68.63641       29.47625
H         87.83863       66.53619       29.69958
H         85.65825       67.01642       27.59433
H         85.58373       66.18262       29.15395
H         87.31422       64.50697       28.30510
H         87.31642       65.41347       26.74513
H         85.80740       63.50320       26.49645
H         84.81979       65.00408       26.54315
H         84.36164       64.47006       29.06584
H         85.28617       62.95439       28.82586
H         82.93419       62.63600       28.62507
H         82.79921       63.82885       27.42510
H         83.64005       62.37433       27.09509
N         88.33825       68.84455       27.19537
C         87.08420       69.51198       26.84475
C         86.97242       70.89371       27.48236
O         87.86805       71.32327       28.19472
C         86.94316       69.55697       25.30353
C         87.96368       70.47849       24.70690
O         87.93976       71.78047       25.05022
O         88.82545       70.04769       23.96463
H         89.19490       69.20045       26.74263
H         86.22740       68.95651       27.23061
H         85.93902       69.92197       25.00378
H         87.06011       68.52655       24.89905
N         85.84019       71.62394       27.28070
C         85.54863       72.89997       27.91132
C         86.38357       74.07840       27.45152
O         87.30250       73.93258       26.66239
H         85.09299       71.21582       26.69927
H         85.61897       72.80046       29.01391
H         84.49648       73.15616       27.65634
N         86.02330       75.31639       27.89873
C         86.61362       76.60370       27.49021
C         85.62373       77.75173       27.79995
O         84.62153       77.49403       28.45438
C         87.94724       76.84292       28.24176
C         89.02432       75.85443       27.90740
O         89.53848       75.06453       28.86934
O         89.46252       75.78530       26.77039
H         85.19838       75.31968       28.51575
H         86.75318       76.59393       26.38900
H         87.74385       76.81168       29.33472
H         88.36311       77.83656       28.01165
N         85.75040       79.04657       27.37506
C         86.78209       79.63973       26.54067
C         86.82141       79.04438       25.16050
O         85.78395       78.94671       24.52142
H         85.00090       79.69740       27.66122
H         87.77012       79.62608       27.03423
H         86.52502       80.71368       26.40725
N         88.01362       78.69843       24.60266
C         88.12251       78.14879       23.25722
C         87.61685       76.71765       23.27208
O         88.14446       75.92027       24.03060
C         89.58426       78.21429       22.75111
C         90.07620       79.66780       22.64857
O         89.65659       77.62015       21.47952
H         88.87429       78.87108       25.14415
H         87.52387       78.76934       22.55230
H         90.23160       77.66129       23.46670
H         90.61756       77.45386       21.29233
H         90.05170       80.17624       23.63424
H         91.12471       79.68706       22.28289
H         89.44491       80.24112       21.93600
N         86.58552       76.33698       22.46047
C         85.99531       74.99755       22.39775
C         87.00704       73.96467       21.92772
O         87.98189       73.72353       22.62098
C         85.35896       74.56312       23.75347
C         84.42209       75.63094       24.36741
C         84.62822       73.21423       23.61506
C         83.22167       76.02004       23.50386
H         86.17399       77.04960       21.83932
H         85.17620       75.04257       21.64599
H         86.17190       74.41418       24.48976
H         85.00947       76.54513       24.57573
H         84.04943       75.25705       25.34635
H         85.33542       72.41949       23.31120
H         84.19060       72.90737       24.58792
H         83.82159       73.26992       22.85416
H         83.55248       76.45849       22.54039
H         82.56691       75.14663       23.31099
H         82.62415       76.78557       24.04200
N         86.82929       73.29264       20.75910
C         87.75216       72.26733       20.28601
C         88.54005       72.73646       19.08031
O         89.37197       71.97207       18.62122
C         87.02990       70.91228       20.04359
C         85.83637       70.99409       19.08315
O         86.63051       70.33681       21.26162
H         86.01933       73.53699       20.16856
H         88.53984       72.06071       21.04602
H         87.77058       70.21245       19.59841
H         86.01935       70.97189       21.71110
H         86.14735       71.41609       18.10529
H         85.42368       69.97620       18.91876
H         85.02454       71.61858       19.51103
N         88.40379       73.99757       18.55875
C         89.32031       74.49558       17.53774
C         90.71315       74.55164       18.16012
O         90.96554       75.43614       18.96379
C         88.87494       75.88758       17.00572
C         87.52031       75.80644       16.28548
O         88.78382       76.80308       18.06959
H         87.68621       74.63208       18.92955
H         89.31338       73.78466       16.68155
H         89.64034       76.23574       16.27362
H         88.75864       77.71235       17.67191
H         87.23405       76.80989       15.90388
H         87.58358       75.11076       15.42269
H         86.71809       75.45798       16.96947
N         91.61935       73.55447       17.91464
C         92.91957       73.40171       18.57557
C         92.81630       73.23060       20.08416
O         92.04461       73.92692       20.72582
C         93.89047       74.55099       18.28948
C         94.13521       74.75768       16.79535
C         95.23247       75.81089       16.59856
C         95.44385       76.20124       15.13038
N         95.86562       75.07250       14.30017
H         91.35809       72.81853       17.24139
H         93.39747       72.48190       18.16647
H         94.85990       74.29220       18.77469
H         93.52185       75.49680       18.74030
H         93.18976       75.09341       16.31713
H         94.45452       73.79661       16.33701
H         96.18729       75.43196       17.02776
H         94.94787       76.73365       17.14968
H         96.23011       76.98754       15.09868
H         94.50431       76.63565       14.72371
H         96.06199       75.42274       13.33499
H         96.73568       74.64133       14.68821
H         95.10687       74.35724       14.23628
N         93.66691       72.38857       20.73815
C         93.68685       72.27687       22.19209
C         92.33514       71.83901       22.72061
O         91.81596       72.55622       23.55755
C         94.81541       71.35408       22.70628
C         96.24615       71.83546       22.39566
C         96.63905       73.09591       23.12384
O         97.63928       73.06028       24.02548
O         96.08848       74.15824       22.88531
H         94.33993       71.83708       20.18513
H         93.88083       73.28217       22.62194
H         94.70524       70.35017       22.26386
H         94.72694       71.24953       23.81135
H         96.39099       71.97104       21.30409
H         96.93585       71.03026       22.72961
N         91.65324       70.73421       22.30621
C         92.08835       69.79301       21.30051
H         92.99431       69.25548       21.62853
H         91.29625       69.02903       21.14951
H         92.25284       70.30314       20.33132
H         90.73046       70.56705       22.71973
Ca        89.56286       73.31119       24.78095
O         92.28508       74.59279       25.93114
H         92.35839       75.10885       26.77260
H         93.21704       74.49996       25.61015
O         91.22469       75.35880       23.32211
H         92.10503       75.59984       22.93936
H         90.63762       75.21205       22.53859
O         90.93467       72.17686       27.17023
H         90.79318       72.55238       28.07503
H         90.30580       71.41503       27.11445

Ca 1.0



