%chk=apoCaM-CA-Ng.loop1.water5.frame1011.chk
%nprocshared=20
%mem=10GB
%nosave
#b3lyp/svp scf=(tight,noincore,xqc) Test 
#IOP(5/87=12) Density=Current Pop=(MK,readradii) iop(6/33=2) iop(6/42=6)

apoCaM-CA-Ng.loop1.water5.frame1011 

   0  1 
C         47.24122       24.78319       40.82036
C         46.60238       25.16972       42.12244
O         45.43524       25.53323       42.12058
H         48.30054       24.48058       40.96148
H         46.68757       23.93335       40.37050
H         47.21441       25.64763       40.12398
N         47.31972       25.12753       43.27939
C         46.78822       25.51737       44.57781
C         47.57975       26.71327       45.05792
O         48.79784       26.62365       45.13924
C         46.88852       24.33042       45.55641
C         46.26200       24.58830       46.90626
O         45.72641       25.65416       47.16984
O         46.27709       23.61286       47.83384
H         48.30561       24.82415       43.23848
H         45.71245       25.78951       44.49444
H         47.95553       24.05354       45.69978
H         46.36088       23.46087       45.10850
N         46.94748       27.87776       45.37374
C         47.66651       29.10283       45.69914
C         47.62520       29.43882       47.18738
O         48.70507       29.46282       47.76341
C         47.20564       30.27104       44.79133
C         47.41305       30.01987       43.28220
C         48.89746       29.88325       42.89089
C         49.11672       29.60065       41.39546
N         48.70336       30.71299       40.53904
H         45.92070       27.89403       45.33309
H         48.74719       28.95971       45.49703
H         47.74963       31.19904       45.07349
H         46.12490       30.45653       44.93973
H         46.97616       30.88730       42.74359
H         46.85544       29.10804       42.97665
H         49.34074       29.02275       43.42831
H         49.45070       30.80319       43.18190
H         48.57375       28.67409       41.10467
H         50.20409       29.42175       41.23935
H         49.22272       31.58178       40.80247
H         48.93307       30.47418       39.54710
H         47.67410       30.87439       40.60482
N         46.52240       29.76236       47.92307
C         45.13578       29.81095       47.49430
C         44.28221       29.10016       48.53396
O         44.36258       29.48192       49.69449
C         44.72860       31.28935       47.39080
C         43.32080       31.44569       46.91693
O         42.97893       31.01620       45.82649
O         42.43213       32.07453       47.69916
H         46.70116       30.05652       48.89777
H         44.98720       29.36032       46.50367
H         45.39096       31.81550       46.67258
H         44.84743       31.78283       48.37907
N         43.41993       28.09155       48.20621
C         42.56941       27.45778       49.20784
C         41.11521       27.76294       48.95975
O         40.29928       26.85333       48.99497
H         43.33440       27.79031       47.22378
H         42.79015       27.84687       50.22382
H         42.75376       26.36180       49.24032
N         40.72322       29.04788       48.71872
C         39.34068       29.49208       48.57861
C         38.56141       28.63451       47.56631
O         37.59842       27.99325       47.96522
C         38.65730       29.51542       49.96906
C         39.36189       30.34252       51.02513
O         38.88244       30.39198       52.14565
O         40.52695       30.98224       50.79760
H         41.45230       29.77077       48.63357
H         39.33435       30.54661       48.23024
H         38.58189       28.47886       50.36138
H         37.62944       29.92264       49.84893
N         38.88522       28.54241       46.24105
C         39.94391       29.29242       45.59759
C         39.40771       30.60360       45.08531
O         38.59350       30.60337       44.17332
H         38.30357       27.93892       45.63821
H         40.35491       28.71043       44.74459
H         40.79222       29.43714       46.28912
N         39.79409       31.76606       45.67465
C         39.31833       33.08622       45.28901
C         40.50435       34.03786       45.19039
O         41.17974       34.22164       46.19154
C         38.28498       33.55770       46.34136
C         37.72257       34.94630       46.03876
O         38.85842       33.56245       47.62232
H         40.40341       31.70333       46.49755
H         38.78954       33.03982       44.31155
H         37.44133       32.82532       46.30766
H         38.16426       33.24845       48.25944
H         37.24580       34.95882       45.03704
H         36.95943       35.20904       46.80208
H         38.52698       35.71101       46.07216
N         40.81188       34.67810       44.01812
C         41.90989       35.64129       43.85138
C         41.62689       36.91377       44.65079
O         41.36352       36.81184       45.83695
C         43.30132       35.01831       44.18916
C         43.56058       33.67913       43.44702
C         44.43389       36.02246       43.90605
C         43.54345       33.76458       41.91746
H         40.23704       34.47369       43.18711
H         41.94429       35.93098       42.77859
H         43.34959       34.78733       45.27304
H         42.79769       32.93464       43.75832
H         44.55096       33.28319       43.76341
H         45.41964       35.57615       44.15508
H         44.43852       36.34049       42.84261
H         44.31255       36.92598       44.53320
H         43.75285       32.75937       41.49483
H         42.54895       34.08747       41.54792
H         44.32208       34.45937       41.54298
N         41.63026       38.14404       44.04761
C         41.23200       39.39396       44.71693
C         41.12461       40.56746       43.73889
O         41.67322       40.52574       42.64465
C         42.15865       39.83345       45.90108
C         43.61087       40.06976       45.47033
O         42.13111       38.90254       46.94878
H         41.85561       38.17209       43.04170
H         40.20305       39.22543       45.10535
H         41.75487       40.79810       46.29014
H         42.38284       39.38248       47.78109
H         44.20758       40.41830       46.34027
H         44.06126       39.13164       45.09536
H         43.67141       40.84782       44.68117
N         40.40696       41.66809       44.10387
C         40.28609       42.87689       43.29453
C         41.62023       43.59484       43.22559
O         42.25095       43.80312       44.25233
C         39.19751       43.81333       43.87865
C         39.07981       45.14286       43.11108
O         37.95323       43.15616       43.87786
H         39.90775       41.63671       45.00690
H         39.94325       42.60633       42.26968
H         39.45421       44.06072       44.93115
H         37.69870       42.99210       42.93019
H         40.02333       45.72399       43.18215
H         38.85324       44.96153       42.03843
H         38.26843       45.75972       43.55042
N         42.07523       44.04097       42.02301
C         43.34246       44.72068       41.79186
C         44.48716       43.76661       42.09488
O         45.42420       44.12217       42.79627
C         43.43576       46.05810       42.57363
C         44.55545       46.96919       42.02953
C         44.81943       48.20584       42.90849
C         45.43794       47.89108       44.28907
N         46.72929       47.20516       44.17926
H         41.48576       43.87959       41.19148
H         43.37365       44.95064       40.70283
H         43.58805       45.82553       43.64617
H         42.48199       46.62298       42.48087
H         44.24368       47.31067       41.01804
H         45.50708       46.42292       41.89423
H         43.87183       48.77003       43.05043
H         45.52806       48.86923       42.36659
H         44.74580       47.28465       44.91003
H         45.59374       48.85630       44.81971
H         47.38079       47.74812       43.56711
H         47.15405       47.11790       45.13026
H         46.60641       46.24081       43.79997
N         44.43114       42.48917       41.62695
C         45.47743       41.50853       41.87139
C         44.95253       40.08867       41.63382
O         44.94817       39.33866       42.59925
C         46.75124       41.86418       41.07049
C         47.90226       40.88429       41.33182
C         49.11227       41.25651       40.52423
O         49.05896       41.26308       39.30426
O         50.26610       41.57380       41.14135
H         43.57279       42.19739       41.14274
H         45.74201       41.55654       42.95418
H         47.09467       42.88167       41.35616
H         46.52723       41.90483       39.99091
H         47.60138       39.85178       41.05486
H         48.15717       40.90253       42.41398
N         44.46681       39.60159       40.45174
C         44.39696       40.30857       39.19015
H         43.78206       41.22352       39.26079
H         45.40852       40.53861       38.81345
H         43.91644       39.65504       38.43186
H         44.11060       38.63263       40.45096
Ca        40.66577       32.91582       49.64949
O         43.71838       34.61376       48.17858
H         44.62942       34.46009       48.53418
H         43.77663       35.48137       47.70594
O         43.53242       32.36597       51.04235
H         44.29489       32.83380       50.61856
H         43.19802       31.75251       50.34178
O         40.68633       36.03598       48.72374
H         39.96146       36.38757       48.14863
H         41.21362       36.83520       48.97571
O         38.67991       34.64489       51.12326
H         37.97169       34.59791       50.43305
H         38.73948       33.72289       51.47993
O         42.25752       35.14857       51.22235
H         41.63093       35.76260       51.68120
H         43.04538       35.70895       51.00885

Ca 1.0



