%chk=apoCaM-CA-Ng.loop4.water3.frame426.chk
%nprocshared=20
%mem=10GB
%nosave
#b3lyp/svp scf=(tight,noincore,xqc) Test 
#IOP(5/87=12) Density=Current Pop=(MK,readradii) iop(6/33=2) iop(6/42=6)

apoCaM-CA-Ng.loop4.water3.frame426 

   -3  1 
C         59.74423       64.19782       64.59543
C         58.78728       63.36489       63.79824
O         59.24891       62.54697       63.02421
H         60.39243       64.78011       63.90844
H         59.21165       64.89574       65.27308
H         60.38288       63.52662       65.21019
N         57.43908       63.48548       63.96425
C         56.45419       62.63877       63.29870
C         56.67665       61.17364       63.61795
O         56.83529       60.36047       62.72414
C         56.17845       63.02312       61.81651
C         57.27711       63.34486       60.82064
O         58.16374       62.45396       60.33212
O         57.28879       64.46537       60.33439
H         57.08859       64.16161       64.65952
H         55.46526       62.83601       63.77489
H         55.58615       63.96483       61.88539
H         55.49358       62.26962       61.37137
N         56.61586       60.79139       64.92932
C         56.68044       59.43450       65.46962
C         55.44590       58.64299       65.04793
O         54.54486       58.52043       65.86698
C         58.05906       58.75904       65.22763
C         58.16561       57.34630       65.86107
C         59.19147       59.67060       65.74471
C         57.94834       57.28724       67.37879
H         56.47187       61.53876       65.62703
H         56.58534       59.56374       66.57181
H         58.21799       58.63498       64.13622
H         59.17725       56.94226       65.64225
H         57.42619       56.67170       65.37982
H         59.18393       60.64475       65.21291
H         59.08080       59.87941       66.82928
H         60.18191       59.20208       65.56804
H         56.91881       57.60064       67.64718
H         58.08173       56.24165       67.72709
H         58.68017       57.91981       67.92081
N         55.29931       58.11709       63.79714
C         54.02702       57.60157       63.29900
C         53.93281       56.07080       63.27063
O         52.94278       55.59822       63.81415
C         53.64921       58.28974       61.97098
C         53.43022       59.78021       62.11113
O         53.11341       60.43406       61.13082
O         53.55346       60.40241       63.30091
H         56.08504       58.16029       63.13831
H         53.20469       57.90296       63.99024
H         52.69649       57.85380       61.59727
H         54.44192       58.13191       61.21868
N         54.83363       55.17729       62.75510
C         56.13225       55.42541       62.15776
C         56.06439       55.83916       60.70429
O         54.97473       56.04119       60.18932
H         54.60479       54.17855       62.88810
H         56.66278       54.44980       62.14780
H         56.73265       56.09192       62.79924
N         57.18483       55.91532       59.92279
C         58.54519       55.59952       60.38077
C         59.01849       56.60670       61.42889
O         58.33987       57.60791       61.61082
C         59.49678       55.56452       59.15867
C         59.09246       54.48212       58.19240
O         58.77055       54.76510       57.04944
O         59.08649       53.19317       58.58476
H         57.04403       56.16020       58.92915
H         58.53045       54.58941       60.84338
H         60.54622       55.37037       59.44590
H         59.47068       56.54924       58.64910
N         60.14177       56.44934       62.19634
C         61.09245       55.34745       62.14977
C         61.21981       54.65245       63.48596
O         60.51672       54.99668       64.42534
H         60.33938       57.18253       62.88981
H         62.08731       55.75066       61.86334
H         60.79676       54.57400       61.41888
N         62.07830       53.59919       63.61161
C         62.05836       52.70795       64.76915
C         62.80388       53.20579       66.01314
O         62.60187       52.58768       67.05001
C         62.39304       51.25136       64.35660
C         63.78361       50.98668       63.74997
C         64.89942       51.30162       64.69320
N         64.96731       50.70396       65.90245
O         65.75876       52.09935       64.35851
H         62.59854       53.31921       62.76838
H         60.99362       52.63694       65.09062
H         61.64989       50.94122       63.58939
H         62.23819       50.58800       65.23414
H         63.91714       51.55685       62.80683
H         63.84925       49.90845       63.49126
H         64.26055       50.01807       66.20101
H         65.72513       50.93559       66.54929
N         63.61272       54.31298       66.03480
C         64.12043       54.89051       67.29413
C         65.64566       54.95464       67.43586
O         66.08073       55.44695       68.46707
C         63.50704       56.30639       67.52412
C         61.98008       56.23651       67.66912
C         63.89039       57.30622       66.42530
H         63.80332       54.80428       65.14989
H         63.79415       54.27402       68.16032
H         63.89378       56.70573       68.48862
H         61.50505       55.85972       66.74141
H         61.70953       55.56392       68.51113
H         61.56904       57.24471       67.89268
H         63.47157       58.30629       66.66698
H         64.99304       57.40437       66.34406
H         63.48845       56.98925       65.44446
N         66.51933       54.47542       66.50268
C         67.97761       54.57102       66.66850
C         68.64384       55.33082       65.53031
O         69.86185       55.47448       65.57729
C         68.62305       53.17117       66.78074
C         68.12453       52.35666       67.94941
N         68.17481       52.83227       69.21515
O         67.69953       51.23068       67.75370
H         66.14992       54.02775       65.65984
H         68.23152       55.12859       67.59376
H         69.71806       53.29985       66.92776
H         68.47008       52.60639       65.83385
H         68.54326       53.77097       69.41949
H         67.83699       52.25397       69.99911
N         67.94641       55.85346       64.48468
C         68.59320       56.53597       63.36365
C         67.59440       57.20825       62.44173
O         66.42410       56.85722       62.46598
C         69.50691       55.56163       62.56687
C         68.87788       54.19179       62.34618
C         69.49781       53.05560       62.90235
C         67.68400       54.01895       61.62076
C         68.93568       51.78609       62.74850
C         67.11915       52.74634       61.47376
C         67.74040       51.62744       62.03717
O         67.17919       50.40950       61.89366
H         66.91963       55.77244       64.48721
H         69.20105       57.37318       63.77565
H         70.43830       55.42138       63.15365
H         69.82136       56.01544       61.60245
H         70.41817       53.14891       63.46511
H         67.17681       54.85765       61.17319
H         69.42814       50.92793       63.18880
H         66.19269       52.62969       60.92527
H         67.57305       49.61291       62.27802
N         68.02255       58.19194       61.59154
C         67.20247       58.97153       60.66110
C         66.32118       60.02148       61.34728
O         66.46107       61.19070       61.01255
C         66.41259       58.08243       59.67880
C         67.35679       57.18036       58.86456
C         66.60559       56.38166       57.84045
O         65.98260       56.94699       56.95552
O         66.63628       55.03599       57.87782
H         69.03371       58.40347       61.58487
H         67.90362       59.56190       60.02568
H         65.86839       58.75051       58.97452
H         65.65746       57.46590       60.20877
H         67.89444       56.48821       59.54620
H         68.11189       57.80263       58.33654
N         65.39044       59.70315       62.29127
C         64.47615       60.66922       62.89726
C         65.19938       61.77258       63.65715
O         64.56472       62.77703       63.94965
C         63.51500       59.97537       63.90176
C         62.71376       58.78952       63.33473
C         61.75640       59.21375       62.27751
O         61.88043       58.81864       61.13018
O         60.69487       59.95539       62.62987
H         65.29910       58.73548       62.57152
H         63.89006       61.12948       62.07059
H         62.80480       60.72303       64.32103
H         64.13112       59.58744       64.74029
H         62.12039       58.32572       64.14955
H         63.37923       57.99544       62.94627
N         66.49415       61.63635       64.06828
C         67.19685       62.64784       64.83266
H         68.11674       62.94668       64.28928
H         66.58192       63.55597       65.00629
H         67.48220       62.22767       65.82021
H         67.00973       60.76755       63.86844
Ca        59.13984       60.62598       61.16961
O         61.27957       62.35508       59.91656
H         61.21603       63.27817       60.26865
H         62.23857       62.12178       59.99332
O         57.34449       59.67453       58.66986
H         56.51793       59.64414       59.21409
H         57.45349       58.75076       58.33040
O         60.36763       58.98389       58.62656
H         60.87187       59.79782       58.87524
H         61.05238       58.37241       58.25568

Ca 1.0



