%chk=apoCaM-CA-Ng.loop2.water3.frame22.chk
%nprocshared=20
%mem=10GB
%nosave
#b3lyp/svp scf=(tight,noincore,xqc) Test 
#IOP(5/87=12) Density=Current Pop=(MK,readradii) iop(6/33=2) iop(6/42=6)

apoCaM-CA-Ng.loop2.water3.frame22 

   -2  1 
C         67.23915       36.24196       34.20091
C         65.81904       35.76637       34.30575
O         65.57827       34.79540       35.00903
H         67.87341       35.42499       33.79580
H         67.32520       37.12096       33.52866
H         67.61487       36.52449       35.20691
N         64.81347       36.40728       33.64028
C         63.42363       35.96201       33.71172
C         63.22939       34.59979       33.04953
O         62.21825       33.96504       33.31156
C         62.49457       37.00859       33.06642
C         61.04036       36.65982       33.22114
O         60.50318       36.52976       34.44943
O         60.34025       36.49448       32.23514
H         65.04393       37.24936       33.09032
H         63.16461       35.88257       34.79232
H         62.75039       37.10694       31.98770
H         62.66254       37.99282       33.55444
N         64.15321       34.09297       32.17972
C         64.10124       32.76279       31.58483
C         64.21685       31.71168       32.67104
O         63.44038       30.76671       32.71347
C         62.87585       32.58503       30.67378
H         64.97672       34.66163       31.93552
H         65.00520       32.65238       30.94520
H         62.91037       31.59216       30.17691
H         61.92607       32.65270       31.24245
H         62.87543       33.36925       29.88751
N         65.19143       31.85728       33.61478
C         65.46765       30.92876       34.70095
C         64.26730       30.71122       35.64831
O         64.31462       29.79960       36.46148
C         66.03517       29.60514       34.10950
C         66.82712       28.81799       35.12696
O         67.01388       29.34871       36.34477
O         67.31426       27.73565       34.84561
H         65.80372       32.68414       33.55484
H         66.28860       31.38804       35.29568
H         66.75090       29.84508       33.29330
H         65.20847       28.99596       33.68581
N         63.15355       31.50231       35.59697
C         61.93777       31.26714       36.36524
C         62.02600       31.45543       37.87014
O         60.99617       31.26951       38.50459
H         63.11990       32.28300       34.93312
H         61.57282       30.23881       36.14952
H         61.15904       31.97639       36.00752
N         63.16966       31.80082       38.53311
C         63.19037       31.92748       39.99487
C         62.44537       33.16941       40.44789
O         62.13233       34.02588       39.63184
C         64.63879       31.98386       40.55658
C         65.41468       30.66519       40.39669
N         64.76140       29.57928       41.11694
O         65.48696       30.33068       39.05457
H         64.03796       31.94346       38.00086
H         62.68446       31.03870       40.43287
H         64.61484       32.19948       41.64620
H         65.19733       32.81385       40.06966
H         64.75327       29.80400       42.13647
H         65.33121       28.71334       40.98692
N         62.14919       33.32676       41.77115
C         61.55547       34.53290       42.32612
C         62.45107       35.10676       43.40060
O         63.43910       34.48383       43.76665
H         62.37537       32.56054       42.42367
H         60.56017       34.30574       42.76282
H         61.41980       35.30252       41.53607
N         62.18328       36.33616       43.92634
C         63.03834       36.97425       44.93344
C         64.46838       37.21363       44.42462
O         65.31703       37.58898       45.22283
C         62.38473       38.30928       45.38573
C         63.06814       38.96126       46.59586
O         62.36932       39.20971       44.30612
H         61.34137       36.83069       43.59251
H         63.08014       36.28507       45.80622
H         61.34012       38.06722       45.69351
H         61.64627       39.86596       44.48242
H         63.08400       38.25499       47.45260
H         64.10089       39.28853       46.36723
H         62.50044       39.86636       46.89764
N         64.81274       37.01878       43.11913
C         66.14132       37.26094       42.57224
C         66.78953       35.95605       42.15240
O         66.18663       34.90292       42.33631
C         66.09150       38.33112       41.43281
C         65.51089       37.89861       40.04982
C         65.43059       39.62156       41.94478
C         64.03131       37.51136       39.96183
H         64.09998       36.69427       42.46931
H         66.80242       37.67853       43.36357
H         67.14538       38.60502       41.21275
H         66.11045       37.06011       39.63622
H         65.65129       38.76337       39.36439
H         65.50154       40.42231       41.17900
H         64.36139       39.45883       42.19182
H         65.95052       39.97593       42.86095
H         63.75755       37.38349       38.89327
H         63.83119       36.53162       40.43090
H         63.37852       38.30048       40.38891
N         68.02529       35.94395       41.57740
C         68.68567       34.72083       41.14812
C         70.18629       34.71509       41.51124
O         70.87155       33.77464       41.14452
C         68.37962       34.54214       39.64548
C         68.60232       33.15060       39.11275
O         68.29911       32.90474       37.95691
O         69.07322       32.15906       39.89372
H         68.46911       36.84358       41.33880
H         68.21476       33.84935       41.65674
H         68.92928       35.29596       39.04634
H         67.29130       34.72531       39.50057
N         70.75459       35.70080       42.28377
C         72.15211       35.67251       42.72358
C         73.11166       35.89447       41.55880
O         72.99678       36.92714       40.91452
C         72.40042       36.73859       43.81499
C         73.79118       36.59892       44.39360
C         73.99003       35.86095       45.57270
C         74.90241       37.17175       43.74829
C         75.27704       35.69078       46.09043
C         76.18701       37.00525       44.27381
C         76.37461       36.26230       45.44194
H         70.16621       36.46092       42.64657
H         72.31900       34.70403       43.23263
H         71.65807       36.55521       44.62308
H         72.22784       37.77593       43.45198
H         73.15132       35.40136       46.08060
H         74.77660       37.74733       42.84025
H         75.42336       35.11050       46.99203
H         77.03783       37.44852       43.77266
H         77.37036       36.12779       45.84379
N         74.10492       35.00334       41.23504
C         75.06718       35.20862       40.15603
C         74.38730       35.40885       38.81677
O         74.75976       36.34080       38.11645
C         75.98526       33.97868       40.23215
C         75.12633       32.93329       40.91187
C         74.36998       33.76280       41.93749
H         75.70092       36.10742       40.33363
H         76.46349       33.67124       39.27690
H         76.79511       34.21300       40.95992
H         74.39417       32.54579       40.17427
H         75.68252       32.07157       41.34022
H         73.47080       33.19350       42.24391
H         75.01517       33.99773       42.81667
N         73.33322       34.64466       38.42712
C         72.58896       34.89664       37.19498
C         72.06158       36.32303       37.18868
O         72.35963       37.05267       36.25318
C         71.42806       33.89590       37.05579
C         71.93898       32.45916       36.85460
C         70.80985       31.47323       36.82033
O         69.94622       31.54706       35.96080
O         70.75122       30.49354       37.74177
H         73.01031       33.90216       39.06248
H         73.25845       34.76742       36.31465
H         70.79751       34.16984       36.18062
H         70.80837       33.95663       37.97035
H         72.61993       32.17270       37.68209
H         72.50664       32.39696       35.90114
N         71.31262       36.79891       38.22333
C         70.82859       38.16439       38.29639
H         69.72288       38.16262       38.38702
H         71.26185       38.65986       39.19110
H         71.10689       38.76361       37.40336
H         71.09955       36.17746       39.01625
Ca        67.56757       29.67045       38.47362
O         68.85400       29.18605       41.12894
H         69.73573       28.78132       41.32584
H         68.77595       29.93944       41.76660
O         69.97877       27.69499       38.10554
H         70.29696       27.09794       38.82815
H         70.66197       27.61239       37.39359
O         67.01459       26.79152       38.88395
H         66.34216       27.16830       38.26209
H         66.68696       27.04124       39.78409

Ca 1.0



