%chk=apoCaM-CA-Ng.loop4.water2.frame444.chk
%nprocshared=20
%mem=10GB
%nosave
#b3lyp/svp scf=(tight,noincore,xqc) Test 
#IOP(5/87=12) Density=Current Pop=(MK,readradii) iop(6/33=2) iop(6/42=6)

apoCaM-CA-Ng.loop4.water2.frame444 

   -3  1 
C         76.84444       64.89537       73.04167
C         75.95479       63.72295       73.32838
O         76.47530       62.65440       73.61051
H         77.49668       64.66812       72.17349
H         76.25532       65.80948       72.81890
H         77.47899       65.09526       73.93147
N         74.59638       63.86157       73.31611
C         73.65462       62.80105       73.66236
C         73.94365       62.28142       75.04719
O         74.19378       61.10055       75.20307
C         73.49636       61.73193       72.54223
C         74.74461       61.02327       72.07831
O         75.29414       59.95767       72.71138
O         75.24931       61.38243       71.02572
H         74.20001       64.79292       73.11621
H         72.64049       63.25851       73.72901
H         73.10727       62.30296       71.66757
H         72.70892       60.98874       72.79376
N         73.90791       63.15667       76.09977
C         74.01139       62.83499       77.52364
C         72.73377       62.13783       77.98499
O         71.97935       62.75451       78.72480
C         75.34684       62.12925       77.89586
C         75.44493       61.75586       79.39907
C         76.54305       63.00901       77.47966
C         75.40748       62.93748       80.37042
H         73.74960       64.15229       75.87827
H         74.01702       63.81204       78.05798
H         75.41435       61.17438       77.34189
H         76.39483       61.20047       79.56564
H         74.61595       61.06911       79.66106
H         76.48222       64.01611       77.93956
H         77.50004       62.56061       77.80812
H         76.57206       63.13399       76.37738
H         74.45315       63.49424       80.28494
H         75.48979       62.55556       81.40961
H         76.25699       63.62705       80.19260
N         72.38410       60.89599       77.55007
C         71.09048       60.28748       77.82522
C         70.87075       60.07631       79.33207
O         69.93266       60.68211       79.83049
C         70.86717       59.03286       76.94529
C         70.94448       59.34478       75.47181
O         70.18203       60.15283       74.96710
O         71.84889       58.71521       74.69737
H         73.02683       60.38225       76.95236
H         70.30839       61.00332       77.47948
H         69.86341       58.60744       77.15766
H         71.63192       58.27183       77.13175
N         71.66389       59.33011       80.16981
C         72.82015       58.54094       79.78001
C         72.40238       57.22080       79.16685
O         71.21701       56.91651       79.20754
H         71.44888       59.36166       81.17860
H         73.42568       58.29328       80.67660
H         73.44123       59.16435       79.12469
N         73.26241       56.36848       78.53186
C         74.71212       56.52861       78.36460
C         75.12072       57.85051       77.76409
O         74.34484       58.40970       77.01005
C         75.25507       55.42331       77.42473
C         74.47934       55.29453       76.11714
O         74.33879       56.27970       75.18963
O         73.92113       54.23192       75.89480
H         72.82822       55.52592       78.12298
H         75.18129       56.43958       79.36389
H         75.16797       54.45560       77.96770
H         76.33119       55.57331       77.20397
N         76.35780       58.39765       77.95688
C         77.42245       57.86391       78.79988
C         77.14283       57.99285       80.27803
O         76.08902       58.48106       80.66111
H         76.57328       59.25352       77.43611
H         78.34274       58.45857       78.61814
H         77.64761       56.81321       78.53230
N         78.09651       57.59989       81.17325
C         77.94460       57.73310       82.61911
C         78.88045       58.79301       83.19964
O         78.71454       59.12088       84.36667
C         78.00562       56.34738       83.30546
C         79.28837       55.51897       83.09899
C         80.49226       56.11837       83.76119
N         80.50524       56.32547       85.09760
O         81.47409       56.39495       83.09225
H         78.98054       57.21694       80.80557
H         76.92894       58.12676       82.84437
H         77.17067       55.74490       82.88632
H         77.80227       56.46389       84.39168
H         79.47395       55.36297       82.01513
H         79.13294       54.51618       83.55149
H         79.69582       56.07669       85.68194
H         81.32611       56.72975       85.55915
N         79.80508       59.44670       82.42946
C         80.49702       60.66460       82.85551
C         82.01695       60.53880       82.91439
O         82.63916       61.52640       83.28129
C         80.08803       61.85148       81.92064
C         78.60525       62.20736       82.09436
C         80.38395       61.58614       80.42916
H         79.96775       59.13075       81.46609
H         80.19482       60.94142       83.89010
H         80.66604       62.75202       82.22578
H         78.39999       62.47819       83.15197
H         78.34952       63.08577       81.46385
H         77.95047       61.35827       81.80578
H         80.15148       62.49054       79.82759
H         81.45375       61.33394       80.27633
H         79.75728       60.76319       80.02477
N         82.69222       59.39467       82.59685
C         84.15419       59.30697       82.64719
C         84.75756       58.98715       81.28898
O         85.97868       58.90959       81.22187
C         84.62190       58.21438       83.63697
C         84.14947       58.39269       85.05477
N         84.40474       59.52348       85.75049
O         83.55825       57.47674       85.60006
H         82.16589       58.56479       82.30195
H         84.59474       60.27369       82.97210
H         85.73379       58.21666       83.66612
H         84.29366       57.21741       83.26779
H         84.91601       60.30746       85.32316
H         84.08662       59.61163       86.72754
N         84.00577       58.77430       80.16819
C         84.61407       58.34007       78.90871
C         83.66011       58.39321       77.72793
O         82.46779       58.54270       77.93085
C         85.19265       56.90643       79.07661
C         84.19247       55.92025       79.67013
C         84.43215       55.36696       80.94275
C         83.02391       55.54021       78.98377
C         83.52800       54.46424       81.51193
C         82.12219       54.63530       79.55298
C         82.36919       54.09445       80.81701
O         81.48936       53.22326       81.35156
H         82.98561       58.90523       80.21442
H         85.42199       59.06120       78.65177
H         86.06460       56.97117       79.75831
H         85.58954       56.51885       78.11521
H         85.31812       55.63767       81.50289
H         82.79946       55.93310       78.00826
H         83.72899       54.05397       82.49369
H         81.22917       54.35348       79.00871
H         81.62325       52.82486       82.22349
N         84.16164       58.26449       76.45715
C         83.42802       58.29793       75.18623
C         82.83360       59.65730       74.83361
O         83.24002       60.22398       73.82748
C         82.35817       57.19142       75.08297
C         82.98555       55.79279       75.02512
C         81.91896       54.74326       74.90092
O         81.87742       54.02241       73.91653
O         81.00278       54.59123       75.87638
H         85.17990       58.11996       76.37208
H         84.16884       58.09721       74.37735
H         81.79389       57.33222       74.13316
H         81.63289       57.26967       75.92015
H         83.59223       55.59052       75.92930
H         83.66042       55.73931       74.14167
N         81.81344       60.20270       75.54641
C         81.07696       61.38814       75.12807
C         81.91534       62.65762       75.09648
O         81.40797       63.66012       74.61142
C         79.85029       61.61620       76.04626
C         78.93433       60.39053       76.24760
C         78.36080       59.84550       74.97967
O         79.07892       59.33108       74.13793
O         77.03301       59.87334       74.79422
H         81.47515       59.69968       76.35758
H         80.71526       61.20141       74.09385
H         79.24045       62.44955       75.63195
H         80.20743       61.92120       77.05509
H         78.10921       60.70743       76.90102
H         79.43750       59.56560       76.78622
N         83.18435       62.70888       75.59602
C         84.00306       63.90416       75.55874
H         84.93792       63.68843       75.00081
H         83.49280       64.75657       75.06244
H         84.26113       64.20578       76.59487
H         83.60293       61.87858       76.03677
Ca        74.70840       58.37177       74.27899
O         76.94500       57.46536       72.50238
H         77.53268       58.21971       72.24646
H         77.51138       56.66060       72.40026
O         73.81422       56.72665       71.92893
H         74.41369       56.44840       71.19186
H         73.46355       57.60836       71.64543

Ca 1.0



