%chk=apoCaM-CA-Ng.loop1.water3.frame1332.chk
%nprocshared=20
%mem=10GB
%nosave
#b3lyp/svp scf=(tight,noincore,xqc) Test 
#IOP(5/87=12) Density=Current Pop=(MK,readradii) iop(6/33=2) iop(6/42=6)

apoCaM-CA-Ng.loop1.water3.frame1332 

   0  1 
C         63.81458       51.32046      117.27924
C         64.06506       52.44506      118.23661
O         63.23944       53.34331      118.32632
H         62.85215       51.46826      116.74339
H         64.63307       51.28718      116.52846
H         63.77974       50.35897      117.83011
N         65.22002       52.47827      118.96095
C         65.57654       53.58825      119.83896
C         66.73004       54.34955      119.21819
O         67.72491       54.64414      119.86804
C         65.82322       53.08752      121.27843
C         66.86412       51.99889      121.37163
O         68.02074       52.20680      121.04313
O         66.51723       50.78112      121.83040
H         65.90424       51.71706      118.83040
H         64.74339       54.32308      119.88666
H         64.86361       52.67917      121.66305
H         66.11398       53.93926      121.93063
N         66.63182       54.70081      117.91000
C         67.63366       55.46236      117.18576
C         67.69011       56.88536      117.71519
O         68.77432       57.29570      118.09841
C         67.39550       55.37511      115.65809
C         67.52236       53.90231      115.21291
C         67.29473       53.68978      113.71716
C         67.43468       52.19297      113.39012
N         67.20743       51.93149      111.97159
H         65.79504       54.38946      117.39485
H         68.63292       54.99376      117.34531
H         68.16893       55.97512      115.13029
H         66.40120       55.77261      115.37220
H         66.77947       53.27833      115.75257
H         68.53943       53.53589      115.47642
H         68.04054       54.27424      113.13623
H         66.27267       54.03447      113.44685
H         66.69729       51.61060      113.98837
H         68.45580       51.84624      113.66727
H         67.31471       50.90595      111.79596
H         66.23857       52.22088      111.70525
H         67.90800       52.45026      111.39450
N         66.60222       57.70475      117.85394
C         65.21192       57.38868      117.53097
C         64.40248       57.21969      118.80993
O         64.97448       57.30784      119.89315
C         64.65273       58.44037      116.55222
C         64.77285       59.84235      117.06171
O         64.13241       60.22521      118.18284
O         65.46739       60.63979      116.45348
H         66.77549       58.62558      118.29087
H         65.11481       56.42784      117.00911
H         63.59243       58.23170      116.30514
H         65.23307       58.36063      115.60586
N         63.07387       56.92024      118.76790
C         62.28547       56.59856      119.94942
C         61.29063       57.67658      120.27761
O         61.29061       58.70587      119.62042
H         62.59155       56.89079      117.85483
H         62.93045       56.47208      120.84537
H         61.76245       55.63343      119.77397
N         60.46407       57.54142      121.35018
C         59.53031       58.57315      121.81295
C         58.15186       57.96616      122.07728
O         58.03302       56.75198      121.95098
C         60.15038       59.19569      123.07715
C         61.45070       59.85697      122.71172
O         61.45337       60.85954      121.80577
O         62.49887       59.46323      123.19540
H         60.56590       56.68757      121.92649
H         59.40932       59.36446      121.04125
H         60.31529       58.39891      123.83864
H         59.51195       59.96811      123.52727
N         57.03252       58.67039      122.43246
C         56.87111       60.11277      122.59074
C         57.03590       60.86502      121.29486
O         56.53940       60.40910      120.27630
H         56.17441       58.12021      122.59680
H         57.48661       60.52774      123.40866
H         55.81990       60.29173      122.90464
N         57.64855       62.08431      121.27811
C         57.81654       62.86522      120.05476
C         58.77085       62.13883      119.14135
O         59.83985       61.76560      119.59806
C         58.35994       64.28956      120.34843
C         57.36573       65.13192      121.15947
O         58.65631       64.96353      119.14806
H         57.99397       62.47187      122.16900
H         56.83236       63.00003      119.55203
H         59.30407       64.20452      120.92758
H         57.83218       64.98179      118.59326
H         56.41287       65.24892      120.59840
H         57.14616       64.66419      122.14012
H         57.79114       66.14217      121.33883
N         58.45200       61.93038      117.82952
C         59.29274       61.22082      116.86935
C         60.66278       61.87906      116.78212
O         61.50977       61.62104      117.62713
C         59.38521       59.71308      117.23413
C         57.98476       59.05614      117.28898
C         60.32403       58.94465      116.27937
C         57.99705       57.69485      117.99123
H         57.55890       62.30691      117.47743
H         58.80213       61.29648      115.87283
H         59.79599       59.67731      118.24637
H         57.56495       58.96409      116.26426
H         57.29654       59.69180      117.88147
H         59.92916       58.97049      115.24223
H         61.34277       59.38323      116.27895
H         60.44602       57.88964      116.59395
H         56.96366       57.29312      118.03792
H         58.62942       56.95582      117.46251
H         58.36937       57.81207      119.03187
N         60.94869       62.74426      115.77373
C         62.25635       63.36865      115.61476
C         62.21304       64.87610      115.80737
O         63.26038       65.48383      115.65214
C         62.87448       62.97054      114.25008
C         62.06703       63.44974      113.04076
O         62.99484       61.57418      114.17623
H         60.20652       62.97118      115.09570
H         62.96503       63.00230      116.39133
H         63.88666       63.43349      114.16189
H         63.79477       61.32852      114.70684
H         61.95921       64.55408      113.05109
H         62.59597       63.15718      112.10890
H         61.06180       62.98190      113.01817
N         61.07698       65.55437      116.16638
C         61.07498       67.00231      116.38524
C         61.97716       67.32559      117.57725
O         61.54057       67.16485      118.70705
C         59.62387       67.51860      116.60123
C         59.55389       69.04566      116.70092
O         58.82059       67.10207      115.52564
H         60.19450       65.03662      116.28468
H         61.46970       67.47847      115.45978
H         59.23505       67.07288      117.54741
H         57.88621       67.05610      115.86136
H         58.49982       69.35895      116.86493
H         60.16306       69.42036      117.54875
H         59.91431       69.50770      115.75726
N         63.28333       67.68500      117.37859
C         64.29503       67.87256      118.42339
C         64.51255       66.61858      119.26894
O         63.56424       66.10086      119.83663
C         64.02642       69.08957      119.32106
C         63.89739       70.38632      118.50593
C         64.07112       71.61265      119.40917
C         63.87579       72.91746      118.62778
N         64.20809       74.07437      119.45912
H         63.60971       67.79530      116.40686
H         65.25869       68.10023      117.91259
H         64.91511       69.17515      119.98722
H         63.12817       68.95545      119.96100
H         62.91171       70.39516      117.99067
H         64.69961       70.43344      117.73592
H         65.10558       71.58875      119.82044
H         63.35103       71.58115      120.25494
H         62.81623       72.98460      118.29432
H         64.52907       72.92595      117.72692
H         65.22610       74.05319      119.70132
H         64.01020       74.95057      118.92439
H         63.63874       74.07170      120.33613
N         65.76411       66.10883      119.45961
C         65.99728       64.90527      120.25740
C         65.42381       63.64755      119.55588
O         65.43212       62.59815      120.48670
C         67.49448       64.69656      120.58330
C         68.04652       65.78505      121.50833
C         69.49199       65.52145      121.81703
O         70.32100       65.51447      120.92073
O         69.88057       65.28754      123.08499
H         66.56926       66.61601      119.06261
H         65.46335       65.02315      121.22815
H         68.08797       64.65183      119.64553
H         67.61642       63.72588      121.11413
H         67.46401       65.77920      122.45627
H         67.95150       66.78683      121.04068
N         66.21590       63.20185      118.39683
C         66.35626       64.15412      117.29518
H         66.88169       63.65099      116.45460
H         65.36904       64.51116      116.94011
H         67.01058       64.99823      117.57835
H         65.71041       62.37800      118.01690
Ca        63.33236       61.85891      121.01794
O         65.37358       60.38458      122.76053
H         64.63905       60.86792      123.21482
H         66.15236       60.98769      122.85433
O         61.88730       63.93285      119.29098
H         61.61257       64.28887      120.17245
H         61.15923       64.20083      118.67759
O         62.18609       63.81361      123.04034
H         62.25876       62.93408      123.48972
H         63.10881       64.01738      122.74354

Ca 1.0



