%chk=apoCaM-CA-Ng.loop4.water5.frame724.chk
%nprocshared=20
%mem=10GB
%nosave
#b3lyp/svp scf=(tight,noincore,xqc) Test 
#IOP(5/87=12) Density=Current Pop=(MK,readradii) iop(6/33=2) iop(6/42=6)

apoCaM-CA-Ng.loop4.water5.frame724 

   -3  1 
C         89.24711       87.62818       -6.74464
C         89.42033       86.78869       -7.97918
O         88.52102       86.03235       -8.31505
H         88.36410       88.29028       -6.86710
H         89.09691       86.97818       -5.85981
H         90.13607       88.26977       -6.56225
N         90.55643       86.89913       -8.72318
C         90.81803       86.19026       -9.97263
C         89.74667       86.53553      -10.98764
O         89.13342       85.64526      -11.56118
C         90.96624       84.66245       -9.76391
C         91.86988       84.34886       -8.60910
O         91.36598       83.61670       -7.60323
O         92.99647       84.81207       -8.53735
H         91.28218       87.56257       -8.41103
H         91.79165       86.56267      -10.36148
H         91.34991       84.19445      -10.69530
H         89.97550       84.21279       -9.53626
N         89.42654       87.84029      -11.21393
C         88.33427       88.21888      -12.10150
C         88.66125       87.81267      -13.53262
O         89.81681       87.94055      -13.91401
C         87.96644       89.72901      -12.01585
C         89.10686       90.65408      -12.51219
C         87.51316       90.08082      -10.58439
C         88.70488       92.12631      -12.57757
H         89.93758       88.56641      -10.69244
H         87.44827       87.66667      -11.73202
H         87.08767       89.87961      -12.68370
H         89.38468       90.36774      -13.54687
H         90.00465       90.54961      -11.86795
H         88.34521       89.98835       -9.85669
H         87.10734       91.11009      -10.53110
H         86.69856       89.40161      -10.26638
H         88.48050       92.53072      -11.57086
H         89.54587       92.71502      -12.99955
H         87.81856       92.25122      -13.23592
N         87.75365       87.27881      -14.39794
C         86.33140       87.07646      -14.13708
C         85.99740       85.59972      -13.99937
O         84.84749       85.29787      -13.72468
C         85.49957       87.77532      -15.23927
C         85.69114       87.24308      -16.64289
O         86.46085       86.16656      -16.89660
O         85.12268       87.79443      -17.57127
H         88.11570       86.98506      -15.31746
H         86.02043       87.55362      -13.19226
H         85.77655       88.85230      -15.23758
H         84.41846       87.70508      -14.98763
N         86.95440       84.63220      -14.13541
C         86.71385       83.20094      -14.07751
C         85.94969       82.72437      -15.28919
O         86.56210       82.17299      -16.19294
H         87.93385       84.90552      -14.29256
H         86.22788       82.89343      -13.12797
H         87.70871       82.70243      -14.10440
N         84.59919       82.86208      -15.35683
C         83.79197       82.43375      -16.49000
C         82.97508       83.58845      -17.06958
O         82.18210       83.33922      -17.96630
C         82.94522       81.21072      -16.06117
C         82.11333       81.39915      -14.82020
O         81.17603       82.17427      -14.80666
O         82.38273       80.67212      -13.71851
H         84.09876       83.24667      -14.54446
H         84.42955       82.07056      -17.32614
H         83.66268       80.38849      -15.84690
H         82.29744       80.87427      -16.89890
N         83.14609       84.88464      -16.65829
C         82.38982       86.00630      -17.20004
C         80.93443       86.00558      -16.78979
O         80.20684       86.87756      -17.24165
H         83.86679       85.11055      -15.96536
H         82.48210       86.00499      -18.30806
H         82.81365       86.95852      -16.82048
N         80.43984       85.07302      -15.92655
C         79.04737       84.96741      -15.51886
C         78.60869       86.12419      -14.63318
O         77.41804       86.24299      -14.37963
C         78.12385       84.71116      -16.73334
C         78.62321       83.50033      -17.54969
C         77.72048       83.10805      -18.68979
N         78.07658       82.08108      -19.49625
O         76.67235       83.70295      -18.89384
H         81.07539       84.37877      -15.53096
H         78.94719       84.06521      -14.87394
H         78.06917       85.60276      -17.39240
H         77.10013       84.49768      -16.35480
H         78.73134       82.62002      -16.87942
H         79.61675       83.74198      -17.97989
H         78.96065       81.57353      -19.33998
H         77.47284       81.79371      -20.28030
N         79.52782       86.92537      -14.01092
C         79.16960       87.94761      -13.02867
C         79.60460       87.55999      -11.61903
O         79.11928       88.18009      -10.68241
C         79.77024       89.33602      -13.40034
C         81.31149       89.31635      -13.49278
C         79.18695       89.86519      -14.71301
H         80.52689       86.75992      -14.18615
H         78.06257       88.04265      -12.97813
H         79.48790       90.05558      -12.59897
H         81.76467       88.94772      -12.55345
H         81.66611       88.67333      -14.32480
H         81.69817       90.34179      -13.67101
H         79.59218       90.87870      -14.92412
H         79.44551       89.19501      -15.55965
H         78.08264       89.94442      -14.63417
N         80.55365       86.60655      -11.38604
C         81.06743       86.27817      -10.06155
C         80.96735       84.77758       -9.80399
O         80.45115       84.04135      -10.63339
C         82.53739       86.76934       -9.97352
C         82.68378       88.27525       -9.97146
N         83.91736       88.82306       -9.92512
O         81.70551       89.00686       -9.98760
H         81.00377       86.12721      -12.17726
H         80.49109       86.78184       -9.25392
H         83.11564       86.34898      -10.82367
H         83.01583       86.43105       -9.03354
H         84.75119       88.21980       -9.89779
H         84.03690       89.84713       -9.91343
N         81.46306       84.27085       -8.63968
C         81.44303       82.85785       -8.24335
C         82.01817       82.68490       -6.83084
O         82.45933       83.66080       -6.23733
C         82.17309       81.92889       -9.25727
C         83.64412       82.20498       -9.47868
C         84.06642       83.34201      -10.18714
C         84.61061       81.28847       -9.02740
C         85.42195       83.56001      -10.44109
C         85.96796       81.50941       -9.27799
C         86.37704       82.63954       -9.99019
O         87.68566       82.82170      -10.24776
H         81.85831       84.95877       -7.98704
H         80.38134       82.52994       -8.20166
H         81.67046       81.94503      -10.24564
H         82.05162       80.88570       -8.89904
H         83.35222       84.04712      -10.57241
H         84.31609       80.39771       -8.48701
H         85.72613       84.43625      -11.00102
H         86.70255       80.79408       -8.93040
H         87.99880       83.56910      -10.77282
N         82.04271       81.46498       -6.21656
C         82.55532       81.29035       -4.86147
C         83.80600       80.43667       -4.88485
O         83.69531       79.27157       -5.24239
C         81.49957       80.62899       -3.95373
C         80.24357       81.49006       -3.78272
C         79.25673       80.80688       -2.87892
O         78.88975       81.38508       -1.71948
O         78.78110       79.72625       -3.19075
H         81.69392       80.63343       -6.71586
H         82.78852       82.26655       -4.42190
H         81.94724       80.46363       -2.94762
H         81.21645       79.63890       -4.37733
H         79.76213       81.67335       -4.76688
H         80.53222       82.46787       -3.33910
N         85.04639       80.89217       -4.52906
C         85.41208       82.26969       -4.18434
C         84.71063       82.79508       -2.94657
O         84.79549       82.18660       -1.88899
C         86.93975       82.36022       -3.98109
C         87.41961       83.77403       -3.60085
C         88.91505       83.82909       -3.63747
O         89.59191       83.06732       -2.96495
O         89.50127       84.66898       -4.50380
H         85.81107       80.19849       -4.56840
H         85.16794       82.92275       -5.05216
H         87.41970       82.05789       -4.93956
H         87.26424       81.64955       -3.18838
H         87.05650       84.05540       -2.58990
H         87.02251       84.50711       -4.33793
N         84.04791       83.98537       -3.01418
C         83.42168       84.60063       -1.86782
H         82.62000       83.94432       -1.47259
H         84.18239       84.79031       -1.08092
H         82.97627       85.57546       -2.16439
H         84.01053       84.49589       -3.91026
Ca        91.47525       84.20389       -5.44767
O         91.28286       81.11706       -5.07605
H         91.80600       80.46870       -4.54112
H         90.93431       80.58810       -5.83681
O         94.09894       82.50872       -6.18703
H         95.06147       82.28325       -6.13855
H         94.08373       83.46520       -6.44108
O         94.17972       85.50651       -3.95644
H         94.89975       86.04422       -4.37187
H         94.00694       85.95357       -3.09015
O         91.32318       85.79379       -2.46778
H         91.50185       86.76736       -2.45430
H         90.75311       85.63276       -1.67459
O         93.15931       82.42175       -2.73614
H         93.70650       81.72534       -3.17914
H         92.98549       82.06107       -1.83048

Ca 1.0



