%chk=apoCaM-CA-Ng.loop2.water4.frame328.chk
%nprocshared=20
%mem=10GB
%nosave
#b3lyp/svp scf=(tight,noincore,xqc) Test 
#IOP(5/87=12) Density=Current Pop=(MK,readradii) iop(6/33=2) iop(6/42=6)

apoCaM-CA-Ng.loop2.water4.frame328 

   -2  1 
C         42.32703       74.71120       80.69930
C         41.73795       75.83061       81.50792
O         41.95116       75.85964       82.70928
H         43.43206       74.71843       80.79999
H         41.93407       73.74115       81.07113
H         42.06704       74.80463       79.62386
N         40.99175       76.80106       80.91056
C         40.36299       77.89517       81.64627
C         39.31314       77.37153       82.61452
O         38.39366       76.68771       82.18381
C         39.73976       78.94356       80.69042
C         38.60502       78.44023       79.82978
O         37.49531       78.93718       79.93662
O         38.80549       77.47150       78.91648
H         40.89061       76.76244       79.88725
H         41.15442       78.43706       82.21041
H         40.53431       79.34800       80.02750
H         39.36471       79.78640       81.31383
N         39.37060       77.68399       83.94283
C         38.34926       77.24283       84.88913
C         38.35311       75.73868       85.09925
O         37.40949       75.24112       85.69821
C         38.54249       77.92646       86.24901
H         40.13173       78.29570       84.27575
H         37.35817       77.55086       84.48678
H         39.52552       77.64556       86.68663
H         38.50598       79.02977       86.12984
H         37.73966       77.62674       86.95694
N         39.40446       74.95985       84.70111
C         39.49714       73.52582       84.93360
C         39.37714       73.27834       86.42669
O         38.44008       72.62545       86.86684
C         38.43896       72.78493       84.08465
C         38.60541       71.28845       84.08559
O         37.81487       70.60329       83.45880
O         39.62003       70.69274       84.74459
H         40.21518       75.40367       84.26109
H         40.49779       73.18124       84.58506
H         38.52750       73.12404       83.02940
H         37.41844       73.03501       84.44282
N         40.28358       73.84235       87.27269
C         40.13008       73.83500       88.71698
C         41.15144       72.99087       89.42903
O         41.11229       72.97385       90.65090
H         41.09256       74.34767       86.87732
H         39.13455       73.44464       89.01479
H         40.19577       74.88553       89.07380
N         42.06510       72.23254       88.75947
C         43.00126       71.34592       89.44075
C         44.41863       71.79884       89.17859
O         44.61176       72.76523       88.45212
C         42.73491       69.90017       88.98425
C         41.30852       69.51355       89.30644
N         40.42838       69.21918       88.32093
O         40.93989       69.48760       90.47171
H         42.09284       72.24838       87.72863
H         42.86218       71.39110       90.54312
H         43.41867       69.18970       89.49569
H         42.91560       69.82534       87.88954
H         40.71151       69.24849       87.33108
H         39.45255       68.97561       88.54814
N         45.46791       71.17697       89.78607
C         46.82901       71.66895       89.66706
C         47.74390       70.68890       88.98727
O         47.34017       69.58697       88.64228
H         45.29619       70.35912       90.39106
H         47.21948       71.89250       90.68435
H         46.86932       72.61217       89.08421
N         49.03277       71.06486       88.76832
C         50.04524       70.19146       88.18356
C         49.73053       69.73065       86.76240
O         50.35325       68.76501       86.33814
C         51.45386       70.84637       88.24307
C         51.56181       72.16755       87.45220
O         51.85157       71.03700       89.57987
H         49.30240       72.00440       89.09152
H         50.07326       69.27427       88.81369
H         52.18128       70.13706       87.79235
H         51.38882       71.83846       89.93799
H         50.88396       72.95001       87.85045
H         52.60002       72.55473       87.50789
H         51.30973       72.01628       86.39062
N         48.81685       70.35246       85.96008
C         48.46453       69.86551       84.62248
C         46.98013       69.52388       84.59438
O         46.24233       69.92642       85.48685
C         48.93642       70.89779       83.53771
C         50.49109       70.89365       83.49639
C         48.37961       70.61267       82.12838
C         51.12117       71.98507       82.62868
H         48.34456       71.20453       86.30207
H         48.98011       68.90117       84.41668
H         48.56743       71.90421       83.83747
H         50.85113       69.90143       83.14415
H         50.88501       71.04034       84.51414
H         48.71719       69.62115       81.75983
H         47.27214       70.65841       82.12737
H         48.70441       71.38604       81.40408
H         50.81187       72.98843       82.98889
H         52.22777       71.91074       82.70184
H         50.85465       71.87213       81.55953
N         46.49546       68.69491       83.62737
C         45.11483       68.23929       83.54733
C         45.05091       66.70195       83.64858
O         44.01095       66.12227       83.37837
C         44.53717       68.76613       82.21524
C         43.03387       68.71631       82.13462
O         42.29154       68.28421       83.17303
O         42.47408       69.12588       81.13029
H         47.14572       68.33902       82.90857
H         44.51129       68.68056       84.37082
H         44.99744       68.21515       81.36492
H         44.80274       69.84147       82.11468
N         46.13612       65.98202       84.07037
C         46.19885       64.51993       84.12513
C         46.29568       63.96715       82.71049
O         47.17985       64.40959       81.99045
C         47.47725       64.08866       84.88494
C         47.43525       64.49389       86.33924
C         48.14497       65.62100       86.78925
C         46.69271       63.73689       87.26277
C         48.10194       65.99041       88.13689
C         46.66808       64.09921       88.61385
C         47.36828       65.22767       89.04943
H         46.97242       66.49461       84.37761
H         45.32953       64.11215       84.68194
H         48.35929       64.54890       84.38664
H         47.62407       62.98631       84.83514
H         48.71936       66.22213       86.09594
H         46.14852       62.85747       86.94001
H         48.64016       66.86686       88.47377
H         46.10709       63.50477       89.32394
H         47.34377       65.51008       90.09411
N         45.47997       62.97545       82.23204
C         45.64606       62.39883       80.90620
C         45.05544       63.27621       79.81811
O         45.25666       62.96684       78.65097
C         44.89937       61.06604       81.01457
C         43.74688       61.43350       81.93163
C         44.44383       62.29912       82.98399
H         46.71828       62.20212       80.68215
H         44.62022       60.59808       80.04534
H         45.54042       60.35020       81.57730
H         43.05386       62.07955       81.34584
H         43.16422       60.58292       82.34319
H         43.70297       62.99389       83.43484
H         44.93074       61.68139       83.77039
N         44.26727       64.34731       80.11338
C         43.63084       65.15544       79.08459
C         44.59979       66.14594       78.44961
O         44.18676       66.83637       77.52806
C         42.44098       65.91828       79.68306
C         41.34554       64.98335       80.22800
C         40.24141       65.82652       80.77864
O         40.52169       66.70727       81.75388
O         39.11980       65.77652       80.30110
H         44.04301       64.54858       81.09842
H         43.22249       64.48718       78.29343
H         41.98494       66.56006       78.89836
H         42.81718       66.56962       80.49837
H         41.73649       64.33251       81.03812
H         40.96060       64.33690       79.40858
N         45.88582       66.29228       78.88774
C         46.81903       67.23993       78.31087
H         47.70009       66.69264       77.91621
H         46.37336       67.82834       77.48146
H         47.15659       67.94775       79.09703
H         46.23764       65.72509       79.67050
Ca        39.16634       68.44320       82.18887
O         39.78459       68.57561       78.99910
H         38.83810       68.79032       78.80412
H         40.04937       67.95144       78.27776
O         39.63932       71.41225       80.78928
H         38.73143       71.77731       80.63738
H         40.20232       71.85384       80.10501
O         39.46639       67.09864       84.81103
H         40.04423       67.73990       85.29545
H         38.61378       67.58512       84.67977
O         36.57937       67.66032       81.14136
H         37.01169       67.52864       80.26052
H         36.39421       68.63223       81.18184

Ca 1.0



