%chk=apoCaM-CA-Ng.loop3.water3.frame789.chk
%nprocshared=20
%mem=10GB
%nosave
#b3lyp/svp scf=(tight,noincore,xqc) Test 
#IOP(5/87=12) Density=Current Pop=(MK,readradii) iop(6/33=2) iop(6/42=6)

apoCaM-CA-Ng.loop3.water3.frame789 

   0  1 
C         -1.81763       -7.86262      -22.29496
C         -2.90729       -7.91031      -23.31962
O         -3.43634       -8.98188      -23.57722
H         -0.90087       -7.41285      -22.72754
H         -2.16269       -7.24442      -21.43878
H         -1.58543       -8.88300      -21.92245
N         -3.29580       -6.76810      -23.95044
C         -4.44004       -6.70155      -24.85046
C         -3.96576       -6.56244      -26.30125
O         -2.83459       -6.14934      -26.51404
C         -5.32668       -5.53435      -24.33021
C         -6.71401       -5.43483      -24.86605
O         -7.55023       -4.49900      -24.37745
O         -7.11569       -6.21293      -25.70172
H         -2.78218       -5.89471      -23.75018
H         -5.00283       -7.65258      -24.78020
H         -4.80502       -4.56671      -24.49586
H         -5.45800       -5.66568      -23.23575
N         -4.75758       -6.95450      -27.34934
C         -4.37195       -6.85849      -28.76064
C         -5.21945       -5.83103      -29.51306
O         -4.89919       -5.53799      -30.65684
C         -4.50132       -8.23330      -29.45276
C         -3.50136       -9.27230      -28.92962
C         -3.65347      -10.59815      -29.69357
C         -2.55722      -11.59940      -29.30584
N         -2.69133      -12.84385      -30.06451
H         -5.68564       -7.34316      -27.15249
H         -3.32266       -6.50236      -28.84561
H         -4.30282       -8.10472      -30.53951
H         -5.54069       -8.61226      -29.33596
H         -3.64939       -9.44789      -27.84373
H         -2.47566       -8.87558      -29.09058
H         -3.57091      -10.40257      -30.78535
H         -4.65605      -11.03490      -29.48676
H         -2.61270      -11.82079      -28.21733
H         -1.56253      -11.15008      -29.52444
H         -2.64049      -12.64915      -31.09137
H         -1.90868      -13.48810      -29.80787
H         -3.60105      -13.30760      -29.83889
N         -6.28855       -5.22452      -28.92983
C         -7.05214       -4.12444      -29.50548
C         -6.92152       -2.92396      -28.58197
O         -6.48888       -1.87501      -29.03844
C         -8.53473       -4.49610      -29.83543
C         -9.38646       -5.23883      -28.82437
O         -8.84278       -5.73784      -27.70769
O        -10.54743       -5.50132      -29.09327
H         -6.54512       -5.51577      -27.98814
H         -6.62157       -3.81547      -30.48560
H         -8.51605       -5.15542      -30.73023
H         -9.05539       -3.55853      -30.13023
N         -7.22969       -3.02315      -27.25844
C         -7.11403       -1.93763      -26.30289
C         -8.44364       -1.62201      -25.64946
O         -8.47989       -0.68089      -24.86919
H         -7.54754       -3.92072      -26.89095
H         -6.74443       -1.01341      -26.79729
H         -6.37777       -2.21898      -25.51952
N         -9.58397       -2.32208      -25.94195
C        -10.90622       -1.92194      -25.49096
C        -11.63920       -3.03611      -24.74834
O        -11.78786       -4.12706      -25.28083
C        -11.70689       -1.51673      -26.74241
C        -13.06753       -0.97286      -26.39767
N        -13.19189        0.15160      -25.65458
O        -14.06684       -1.54808      -26.80087
H         -9.55292       -3.11722      -26.59423
H        -10.83593       -1.02894      -24.83436
H        -11.80667       -2.39951      -27.41431
H        -11.15038       -0.73017      -27.29795
H        -12.35991        0.65780      -25.31755
H        -14.12355        0.52379      -25.42155
N        -12.22989       -2.76722      -23.54909
C        -13.14648       -3.66419      -22.85898
C        -12.49356       -4.90427      -22.30564
O        -11.53447       -4.78332      -21.55631
H        -12.11363       -1.82579      -23.14459
H        -13.99303       -3.92064      -23.53326
H        -13.57239       -3.11784      -21.99048
N        -13.01664       -6.13874      -22.57146
C        -12.47457       -7.37002      -21.99804
C        -11.05799       -7.62393      -22.47122
O        -10.53749       -6.87218      -23.28293
C        -13.37868       -8.58304      -22.34479
C        -14.69827       -8.54955      -21.60962
C        -14.71966       -8.63980      -20.20493
C        -15.91399       -8.46798      -22.30673
C        -15.93261       -8.64460      -19.51202
C        -17.12841       -8.47052      -21.60990
C        -17.14278       -8.56005      -20.21307
O        -18.32117       -8.56945      -19.55736
H        -13.85478       -6.19905      -23.17051
H        -12.42734       -7.26247      -20.89241
H        -12.90104       -9.53904      -22.04582
H        -13.51949       -8.62404      -23.44748
H        -13.79684       -8.71967      -19.64368
H        -15.92383       -8.40673      -23.38733
H        -15.92984       -8.72019      -18.43141
H        -18.06058       -8.40866      -22.15673
H        -18.37293       -8.63763      -18.59292
N        -10.36766       -8.68468      -21.96187
C         -8.98691       -9.01197      -22.27730
C         -8.86879       -9.25764      -23.80968
O         -8.37039       -8.11240      -24.42422
C         -8.02139       -7.90464      -21.70869
C         -6.51221       -8.21077      -21.90160
C         -8.32190       -7.59515      -20.22923
C         -5.97137       -9.38959      -21.08851
H        -10.83951       -9.30095      -21.28277
H         -8.76953       -9.96572      -21.74678
H         -8.21848       -6.95913      -22.25905
H         -5.92954       -7.31353      -21.60088
H         -6.30213       -8.38565      -22.97357
H         -9.36400       -7.23345      -20.10540
H         -8.19484       -8.49495      -19.59368
H         -7.65014       -6.78921      -19.86316
H         -6.06316       -9.19368      -20.00074
H         -6.49444      -10.33281      -21.33773
H         -4.89104       -9.51701      -21.30964
N         -8.03996      -10.43051      -24.12969
C         -7.84958      -10.66370      -25.57978
C         -7.78535      -12.14621      -25.90522
O         -7.71782      -12.48674      -27.07908
C         -6.55161       -9.99758      -26.07685
O         -5.44253      -10.55623      -25.42340
H         -7.13645      -10.44604      -23.60664
H         -8.71855      -10.25076      -26.13619
H         -6.59958       -8.91627      -25.86724
H         -6.44829      -10.14812      -27.17437
H         -4.64085      -10.11442      -25.80299
N         -7.75551      -13.08605      -24.92106
C         -7.60675      -14.51297      -25.18387
C         -8.86249      -15.09494      -25.83990
O         -9.86087      -14.38813      -25.87877
C         -7.34595      -15.19038      -23.83547
H         -7.77355      -12.77490      -23.93912
H         -6.71543      -14.64473      -25.82724
H         -6.45346      -14.73587      -23.35444
H         -8.22051      -15.06663      -23.16104
H         -7.13954      -16.24815      -23.93940
N         -8.96291      -16.36801      -26.34240
C         -7.87860      -17.33527      -26.53325
C         -8.45924      -18.71856      -26.81983
O         -9.24597      -18.82856      -27.75086
C         -6.99441      -16.92752      -27.71965
H         -9.90413      -16.65360      -26.65861
H         -7.24152      -17.39280      -25.65065
H         -6.18273      -17.67583      -27.85412
H         -7.59067      -16.87988      -28.65590
H         -6.51877      -15.94282      -27.56479
N         -8.12165      -19.84695      -26.12290
C         -7.13598      -19.92254      -25.04752
C         -7.60800      -19.19971      -23.80256
O         -6.84261      -18.42361      -23.25195
C         -6.79791      -21.39370      -24.72667
C         -5.58389      -21.49919      -23.78645
C         -5.15865      -22.92718      -23.60991
O         -5.99981      -23.82311      -23.06072
O         -4.04424      -23.28195      -23.96149
H         -8.55570      -20.73148      -26.43361
H         -6.18454      -19.47642      -25.41640
H         -6.52191      -21.89237      -25.68245
H         -7.67905      -21.92053      -24.29781
H         -5.81973      -21.06246      -22.79295
H         -4.73539      -20.92803      -24.22672
N         -8.85381      -19.40548      -23.29548
C         -9.33626      -18.67803      -22.13998
H        -10.38071      -18.97670      -21.90951
H         -8.69709      -18.88985      -21.25721
H         -9.32306      -17.58574      -22.35009
H         -9.49021      -20.07120      -23.75873
Ca        -9.54181       -7.29742      -26.21424
O        -12.61948       -6.57801      -26.71597
H        -13.00014       -7.26841      -26.11719
H        -13.39664       -6.02726      -26.98621
O         -8.10580       -8.51737      -28.55981
H         -8.49288       -7.97050      -29.28767
H         -8.65377       -9.34142      -28.54951
O        -11.54232       -9.64267      -26.47256
H        -10.92775       -9.77080      -27.23841
H        -11.12922      -10.15220      -25.73104

Ca 1.0



