%chk=apoCaM-CA-Ng.loop3.water3.frame653.chk
%nprocshared=20
%mem=10GB
%nosave
#b3lyp/svp scf=(tight,noincore,xqc) Test 
#IOP(5/87=12) Density=Current Pop=(MK,readradii) iop(6/33=2) iop(6/42=6)

apoCaM-CA-Ng.loop3.water3.frame653 

   0  1 
C        -21.91597       67.73407      110.43457
C        -22.17203       69.14279      110.86644
O        -22.98264       69.34432      111.76052
H        -20.84847       67.48876      110.61635
H        -22.54345       67.02709      111.02020
H        -22.14817       67.61977      109.35700
N        -21.49358       70.17529      110.28352
C        -21.61986       71.55225      110.73499
C        -22.16794       72.44359      109.63434
O        -21.57697       72.53286      108.56769
C        -20.25885       72.04523      111.26734
C        -20.31878       73.33333      112.05525
O        -19.19766       73.80244      112.63284
O        -21.36168       73.95085      112.19496
H        -20.82845       69.96921      109.52273
H        -22.31383       71.57618      111.58183
H        -19.53596       72.13244      110.43118
H        -19.86135       71.28820      111.96287
N        -23.30668       73.15584      109.86083
C        -23.93728       74.06562      108.90889
C        -22.97251       75.13474      108.42021
O        -22.88264       75.35092      107.22005
C        -25.22507       74.66147      109.54233
C        -25.01842       75.58206      110.77410
C        -26.34775       75.87433      111.50167
C        -26.80950       74.66901      112.34463
N        -28.12645       74.88800      112.93815
H        -23.75637       73.04582      110.77933
H        -24.27531       73.47823      108.02612
H        -25.84878       73.78895      109.81884
H        -25.79402       75.23531      108.77801
H        -24.58568       76.53853      110.40978
H        -24.31186       75.15046      111.51437
H        -27.11854       76.17122      110.75881
H        -26.20190       76.72257      112.20653
H        -26.06509       74.52347      113.15655
H        -26.85651       73.74103      111.74011
H        -28.84356       74.96700      112.18101
H        -28.36628       74.06511      113.53901
H        -28.12765       75.75116      113.52702
N        -22.18788       75.80585      109.30404
C        -21.25088       76.86933      108.94051
C        -19.78287       76.50608      109.20717
O        -18.92879       77.34162      108.94247
C        -21.63321       78.17337      109.68211
C        -21.53690       78.07562      111.18245
O        -21.25119       76.90070      111.76822
O        -21.67458       79.07518      111.86774
H        -22.27050       75.52736      110.28644
H        -21.32003       77.08396      107.85175
H        -22.66358       78.48147      109.40621
H        -20.93659       78.97343      109.34720
N        -19.39954       75.28628      109.68547
C        -18.00091       74.90842      109.86662
C        -17.24664       75.66513      110.95319
O        -16.03572       75.50197      111.00109
H        -20.11304       74.56820      109.84367
H        -17.48120       75.06565      108.89669
H        -17.92503       73.82620      110.10301
N        -17.86136       76.48595      111.85910
C        -17.13246       77.31841      112.81968
C        -17.39276       76.86551      114.29904
O        -18.53424       77.46599      114.85479
C        -17.51448       78.78879      112.51944
C        -16.71409       79.82684      113.26243
N        -15.96919       80.73027      112.58098
O        -16.75972       79.87925      114.48143
H        -18.87972       76.56103      111.83168
H        -16.04268       77.20226      112.63289
H        -18.59570       78.94535      112.72741
H        -17.37158       78.95153      111.42785
H        -15.92957       80.71776      111.55071
H        -15.43523       81.45459      113.08254
N        -16.22134       77.15230      115.14897
C        -16.49114       77.07159      116.59786
C        -16.90999       75.68821      117.05426
O        -16.11435       74.76516      116.96308
H        -15.44288       76.50191      114.89357
H        -17.26119       77.82515      116.86959
H        -15.57542       77.36318      117.15494
N        -18.16421       75.48115      117.55057
C        -18.65108       74.18829      118.02821
C        -19.49179       73.51729      116.94963
O        -19.61596       74.05353      115.86067
C        -19.48823       74.36634      119.32498
C        -18.70663       74.77207      120.55338
C        -18.58452       73.86309      121.62322
C        -18.13453       76.04861      120.67754
C        -17.90654       74.22102      122.78864
C        -17.46011       76.40746      121.85167
C        -17.34498       75.49755      122.90956
O        -16.70048       75.86039      124.03698
H        -18.83398       76.26526      117.53165
H        -17.80836       73.49150      118.23173
H        -19.96877       73.40123      119.56968
H        -20.32082       75.08252      119.15767
H        -19.01761       72.87181      121.56081
H        -18.22560       76.77445      119.88152
H        -17.82630       73.50640      123.59881
H        -17.03386       77.39802      121.94376
H        -16.61088       75.26121      124.79246
N        -20.07356       72.30127      117.20539
C        -20.88519       71.51406      116.28157
C        -22.14455       72.26644      115.85180
O        -22.03735       73.37529      115.34284
C        -20.05906       70.99797      115.06689
C        -20.84837       69.94264      114.23490
C        -18.69686       70.42034      115.49678
C        -21.18893       68.63145      114.95830
H        -19.91757       71.86798      118.12470
H        -21.19239       70.61019      116.84641
H        -19.83676       71.85961      114.40520
H        -20.24557       69.65523      113.35022
H        -21.79195       70.39616      113.87234
H        -18.07552       71.20078      115.98326
H        -18.81656       69.58194      116.21256
H        -18.13610       70.06301      114.60629
H        -21.84467       68.79370      115.83513
H        -21.73261       67.96191      114.25917
H        -20.26895       68.10105      115.27873
N        -23.38095       71.70594      115.99165
C        -24.60668       72.33789      115.49065
C        -25.89463       71.90305      116.18154
O        -26.92108       72.47769      115.85072
C        -24.76237       72.07348      113.98079
O        -23.85133       72.83358      113.25030
H        -23.40840       70.74053      116.34330
H        -24.55575       73.43578      115.67523
H        -25.76908       72.36792      113.62881
H        -24.67081       70.98836      113.74477
H        -22.97836       72.39748      113.37362
N        -25.95790       70.92435      117.13184
C        -27.22292       70.56062      117.76200
C        -27.75614       71.71253      118.60783
O        -26.98798       72.62285      118.89171
C        -26.98874       69.33703      118.64822
H        -25.11722       70.41103      117.41145
H        -27.94517       70.29869      116.95973
H        -27.90699       69.04619      119.15888
H        -26.63562       68.48371      118.03001
H        -26.22879       69.55933      119.42691
N        -29.03686       71.78348      119.08186
C        -30.15082       70.91310      118.70371
C        -31.24706       71.00072      119.76047
O        -31.66734       72.11238      120.05298
C        -30.73365       71.38832      117.36573
H        -29.26286       72.61661      119.64855
H        -29.82182       69.87182      118.56614
H        -31.09124       72.43851      117.44206
H        -29.97509       71.33990      116.55916
H        -31.59128       70.74315      117.07536
N        -31.81595       69.92016      120.37362
C        -31.51152       68.51551      120.11241
C        -30.12653       68.14310      120.58527
O        -29.43146       67.44903      119.85804
C        -32.51914       67.58130      120.81607
C        -33.95558       67.77685      120.30317
C        -34.88608       66.77778      120.92664
O        -34.71520       65.58224      120.74626
O        -35.92368       67.19599      121.67576
H        -32.56238       70.12623      121.05590
H        -31.60813       68.30364      119.02296
H        -32.48618       67.73171      121.91793
H        -32.21757       66.53144      120.59704
H        -33.98589       67.64581      119.19973
H        -34.31134       68.80049      120.54254
N        -29.67750       68.53599      121.81080
C        -28.36532       68.20054      122.32667
H        -27.79241       69.13402      122.50940
H        -28.47743       67.65395      123.28597
H        -27.78238       67.56553      121.62676
H        -30.28578       69.11699      122.40675
Ca       -20.36891       76.76225      113.78880
O        -21.08137       79.13100      115.49301
H        -21.38111       79.08290      114.55105
H        -20.26627       79.69189      115.46295
O        -23.53005       76.43714      114.00899
H        -24.30186       76.22439      114.59140
H        -23.85415       77.16599      113.42215
O        -21.67088       76.16091      116.80783
H        -22.03676       75.37130      117.28002
H        -22.04084       76.93631      117.29924

Ca 1.0



