%chk=apoCaM-CA-Ng.loop1.water3.frame725.chk
%nprocshared=20
%mem=10GB
%nosave
#b3lyp/svp scf=(tight,noincore,xqc) Test 
#IOP(5/87=12) Density=Current Pop=(MK,readradii) iop(6/33=2) iop(6/42=6)

apoCaM-CA-Ng.loop1.water3.frame725 

   0  1 
C         86.16172       95.12910       27.87256
C         86.06996       96.45488       27.16914
O         85.07902       97.15383       27.32244
H         87.05783       95.11310       28.52954
H         85.26192       94.94256       28.49614
H         86.25337       94.31390       27.12385
N         87.09944       96.86901       26.38298
C         87.12151       98.14905       25.67520
C         85.99600       98.24834       24.63080
O         85.92462       97.42510       23.73140
C         88.52141       98.38027       25.04575
C         88.94279       97.34224       24.03130
O         90.00020       97.46878       23.43632
O         88.14231       96.29366       23.76050
H         87.92293       96.24916       26.32210
H         86.98716       98.95922       26.42596
H         89.28218       98.39912       25.85814
H         88.52086       99.37806       24.55668
N         85.04768       99.22486       24.70886
C         83.91990       99.28932       23.77702
C         84.32442       99.66136       22.35255
O         85.15453      100.54377       22.17997
C         82.82087      100.25707       24.26958
C         83.16053      101.75625       24.17088
C         81.95069      102.59672       24.59429
C         82.17754      104.08916       24.32534
N         80.98494      104.86204       24.67136
H         85.08762       99.88934       25.49626
H         83.42743       98.29059       23.77675
H         82.55010       99.99383       25.31570
H         81.92460      100.07987       23.63383
H         83.38064      102.00774       23.11230
H         84.04664      102.00915       24.79228
H         81.73677      102.42765       25.67227
H         81.06671      102.27584       24.00023
H         82.39878      104.23681       23.24384
H         83.04662      104.45498       24.91498
H         80.16660      104.52938       24.11004
H         80.77512      104.76247       25.69085
H         81.15260      105.87031       24.45241
N         83.65896       99.11967       21.28771
C         83.81644       99.57992       19.90708
C         82.46058      100.03058       19.36725
O         81.54631       99.21691       19.37006
C         84.32480       98.45374       18.98497
C         85.68134       97.94831       19.37302
O         86.61965       98.06057       18.59989
O         85.86369       97.33672       20.55810
H         82.96196       98.38114       21.46875
H         84.55522      100.40468       19.85359
H         84.38050       98.85999       17.94796
H         83.61468       97.59898       18.97915
N         82.22543      101.26192       18.82666
C         83.19892      102.33559       18.75664
C         82.68747      103.48105       17.90484
O         81.62378      104.01608       18.18681
H         81.29196      101.42944       18.42770
H         84.13731      101.95813       18.30157
H         83.41236      102.69655       19.78554
N         83.41699      103.90854       16.83392
C         82.99926      104.98837       15.94961
C         82.14624      104.40689       14.84152
O         82.61456      103.52762       14.12983
C         84.24903      105.70269       15.38636
C         83.95322      106.92780       14.55776
O         84.97771      107.63468       14.04431
O         82.80844      107.30300       14.35791
H         84.31948      103.44834       16.63864
H         82.43283      105.74838       16.53399
H         84.84348      104.99016       14.77336
H         84.87758      106.03061       16.24238
N         80.86991      104.84247       14.64399
C         79.99874      104.28200       13.62498
C         79.56324      102.85842       13.92024
O         78.85205      102.30573       13.09280
H         80.50431      105.61502       15.22043
H         80.51118      104.33033       12.63846
H         79.07435      104.89540       13.55759
N         79.91795      102.20355       15.06868
C         79.49896      100.84077       15.38172
C         80.72117       99.93622       15.48077
O         81.84362      100.42455       15.43132
C         78.67129      100.85278       16.69286
C         77.43693      101.75030       16.57995
O         78.24863       99.55502       17.02498
H         80.49796      102.67756       15.77388
H         78.86725      100.43415       14.56173
H         79.31084      101.27185       17.50006
H         78.44112       99.41568       17.98938
H         77.72787      102.79863       16.35674
H         76.76293      101.38134       15.77837
H         76.88544      101.74677       17.54403
N         80.57081       98.58028       15.55926
C         81.70118       97.64854       15.56454
C         82.47826       97.73749       14.24527
O         83.60858       97.27414       14.19955
C         81.20493       96.19399       15.87157
C         80.55240       96.15850       17.28517
C         82.33582       95.14762       15.77688
C         79.90526       94.81995       17.64425
H         79.61473       98.19876       15.57136
H         82.38978       97.95904       16.38330
H         80.43926       95.92454       15.10964
H         79.74359       96.91379       17.35048
H         81.31100       96.41389       18.05706
H         83.14241       95.37053       16.50685
H         81.95271       94.12443       15.95601
H         82.76044       95.10595       14.75492
H         79.41602       94.90664       18.63726
H         79.13445       94.55214       16.89090
H         80.65437       94.00740       17.71748
N         81.95792       98.37095       13.15276
C         82.69110       98.58672       11.91164
C         81.90577       98.05144       10.72056
O         80.81948       97.51679       10.89143
C         83.01424      100.09930       11.77308
C         81.76637      100.98961       11.72901
O         83.82091      100.48619       12.85663
H         81.00560       98.75463       13.19586
H         83.66664       98.05228       11.92899
H         83.58425      100.25070       10.82938
H         84.33398      101.28622       12.56915
H         81.10535      100.70335       10.88507
H         81.20015      100.91777       12.67712
H         82.06817      102.04950       11.59772
N         82.41834       98.18759        9.46614
C         81.75161       97.74747        8.24743
C         82.65121       96.75582        7.53298
O         82.22843       95.63113        7.29871
C         81.38922       98.98564        7.38534
C         80.66986       98.60598        6.08969
O         82.52720       99.74547        7.06492
H         83.33293       98.64714        9.36573
H         80.79113       97.23667        8.48441
H         80.67158       99.60884        7.97307
H         82.60403      100.46492        7.74549
H         81.33084       98.00021        5.43438
H         79.74848       98.02788        6.31306
H         80.38259       99.52820        5.54044
N         83.92530       97.09696        7.19387
C         84.86782       96.17210        6.57538
C         86.29687       96.48060        7.00415
O         86.55290       97.54450        7.55512
C         84.65390       96.13432        5.04487
C         84.66163       97.53810        4.40367
C         84.29103       97.48165        2.91413
C         84.11788       98.89465        2.33316
N         83.73534       98.84191        0.92185
H         84.25410       98.04378        7.42754
H         84.68011       95.15750        6.99349
H         83.64909       95.69400        4.86312
H         85.40737       95.47414        4.56292
H         85.65339       98.02259        4.53499
H         83.89413       98.16208        4.90998
H         83.32353       96.94460        2.79980
H         85.07532       96.92817        2.35380
H         85.06490       99.46808        2.43852
H         83.32128       99.42774        2.90072
H         83.58956       99.81582        0.56945
H         84.49209       98.38783        0.36123
H         82.84256       98.30835        0.80832
N         87.27168       95.53367        6.87729
C         88.61697       95.72918        7.41145
C         88.57775       96.01378        8.91614
O         89.09955       97.05101        9.29913
C         89.57255       94.55249        7.10594
C         89.79402       94.34018        5.60316
C         90.83691       93.28279        5.37176
O         91.86470       93.55615        4.77241
O         90.64670       92.02962        5.82780
H         87.03129       94.63341        6.43433
H         89.06514       96.61803        6.91060
H         89.21756       93.60497        7.54568
H         90.55813       94.79574        7.56410
H         90.13198       95.29405        5.14238
H         88.84938       94.02529        5.11308
N         87.98122       95.21197        9.85101
C         87.25962       93.98576        9.58053
H         86.40517       94.17616        8.90106
H         87.92342       93.20751        9.16841
H         86.84822       93.58188       10.53056
H         88.01341       95.51798       10.83659
Ca        88.13876       95.05701       21.88557
O         87.15073       94.54915       19.14895
H         87.54001       95.34873       18.71379
H         86.97750       93.91859       18.40613
O         90.67599       95.14121       20.65911
H         90.48935       96.00793       20.21843
H         90.74970       95.36455       21.62145
O         88.78010       98.33817       20.94931
H         89.52703       98.92117       21.23535
H         88.02244       98.96086       20.82027

Ca 1.0



