%chk=apoCaM-CA-Ng.loop1.water5.frame636.chk
%nprocshared=20
%mem=10GB
%nosave
#b3lyp/svp scf=(tight,noincore,xqc) Test 
#IOP(5/87=12) Density=Current Pop=(MK,readradii) iop(6/33=2) iop(6/42=6)

apoCaM-CA-Ng.loop1.water5.frame636 

   0  1 
C        -15.96341       32.66357       28.90728
C        -17.17335       32.12522       29.60409
O        -17.67980       31.08810       29.19924
H        -15.11743       32.71916       29.62230
H        -15.67937       32.00731       28.05686
H        -16.18401       33.67861       28.51415
N        -17.71363       32.80652       30.65260
C        -18.92789       32.37470       31.33467
C        -20.06632       33.30908       30.98841
O        -19.82206       34.39052       30.46826
C        -18.68394       32.22049       32.85246
C        -18.16139       33.47337       33.50871
O        -17.06335       33.47131       34.04376
O        -18.90094       34.59684       33.52235
H        -17.27678       33.69709       30.93844
H        -19.24184       31.38121       30.94890
H        -17.93498       31.41067       32.99684
H        -19.62129       31.91026       33.36194
N        -21.35656       32.89828       31.15678
C        -22.49958       33.69477       30.72565
C        -23.38082       34.01849       31.91411
O        -23.24982       33.38591       32.95226
C        -23.30939       32.93984       29.64872
C        -22.46406       32.50244       28.43618
C        -23.32627       31.72106       27.43018
C        -22.49141       31.17241       26.26363
N        -23.32693       30.41033       25.33394
H        -21.53498       31.96710       31.56450
H        -22.14956       34.65719       30.29197
H        -24.13749       33.58870       29.29578
H        -23.74819       32.02772       30.11048
H        -21.64402       31.83797       28.78624
H        -22.01539       33.39080       27.93938
H        -24.12617       32.38498       27.03505
H        -23.80145       30.86086       27.95088
H        -21.69348       30.50581       26.66187
H        -22.01148       32.01293       25.71879
H        -23.78477       29.61093       25.82998
H        -24.05835       31.03022       24.91627
H        -22.72837       30.02872       24.56590
N        -24.27787       35.04070       31.83386
C        -25.11754       35.49272       32.94717
C        -26.03063       36.63214       32.47639
O        -25.94680       37.72801       33.01314
C        -24.23245       35.89324       34.16313
C        -23.04656       36.73955       33.77456
O        -21.80527       36.24168       33.94272
O        -23.19348       37.84462       33.27907
H        -24.32893       35.55428       30.94181
H        -25.78506       34.67156       33.28723
H        -23.83134       34.96993       34.62810
H        -24.84060       36.38633       34.95086
N        -26.93126       36.47960       31.45774
C        -27.16945       35.23632       30.73856
C        -26.56904       35.25412       29.35099
O        -26.61001       34.21994       28.69941
H        -27.46867       37.30780       31.15543
H        -28.26006       35.02953       30.70247
H        -26.70539       34.37988       31.26205
N        -25.95691       36.36404       28.84380
C        -25.19976       36.36942       27.59829
C        -23.78406       36.86784       27.86120
O        -23.47779       37.26579       28.97794
C        -25.93774       37.20291       26.53294
C        -26.21409       38.61693       26.96653
O        -25.19998       39.45671       27.24687
O        -27.36571       39.01185       27.05854
H        -25.98594       37.24851       29.37128
H        -25.10815       35.33584       27.19638
H        -26.90592       36.69716       26.31978
H        -25.35595       37.21717       25.58717
N        -22.85007       36.84566       26.87415
C        -21.47824       37.27362       27.10355
C        -20.65425       37.03798       25.86787
O        -20.94475       37.63523       24.84032
H        -23.11951       36.47724       25.94822
H        -21.06174       36.67702       27.94310
H        -21.44716       38.34925       27.38146
N        -19.66057       36.10524       25.87917
C        -18.97549       35.66817       24.66995
C        -17.46270       35.63794       24.82873
O        -16.93973       35.87457       25.90923
C        -19.52023       34.26674       24.27428
C        -19.31242       33.20033       25.36181
O        -20.89363       34.37707       23.99796
H        -19.47150       35.59783       26.75689
H        -19.19690       36.35949       23.82690
H        -18.98931       33.93321       23.35468
H        -21.11386       33.68778       23.31816
H        -19.88851       33.44194       26.27905
H        -19.66612       32.21638       24.99031
H        -18.24229       33.10695       25.62983
N        -16.70558       35.29523       23.74992
C        -15.26830       35.06105       23.78473
C        -14.52643       36.38068       23.66262
O        -13.63785       36.63942       24.46189
C        -14.86507       34.04813       22.66541
C        -15.74053       32.75556       22.67323
C        -13.37437       33.67648       22.76889
C        -15.74836       31.97458       23.99146
H        -17.19436       35.12239       22.85973
H        -14.99445       34.57231       24.74641
H        -15.02389       34.52752       21.67365
H        -15.39934       32.07878       21.86031
H        -16.79325       33.01145       22.43683
H        -12.73487       34.57633       22.66202
H        -13.14653       33.20328       23.74707
H        -13.09976       32.96643       21.95961
H        -16.13679       32.59821       24.82010
H        -16.42042       31.09579       23.89069
H        -14.73600       31.60996       24.25293
N        -14.89843       37.29438       22.71861
C        -14.29320       38.61936       22.57717
C        -13.98496       38.89189       21.10288
O        -14.28846       38.05248       20.26512
C        -15.26735       39.67083       23.18070
C        -15.50706       39.40425       24.67378
O        -14.74161       40.96561       23.05626
H        -15.71485       37.07665       22.12631
H        -13.33555       38.67504       23.14134
H        -16.23566       39.60189       22.63094
H        -15.50807       41.59613       23.08211
H        -14.54466       39.45278       25.22947
H        -16.19287       40.17036       25.09102
H        -15.96896       38.41019       24.83839
N        -13.37962       40.05381       20.71248
C        -13.07774       40.38114       19.32459
C        -11.57690       40.56222       19.18295
O        -10.95688       39.76651       18.49094
C        -13.91978       41.60872       18.87543
C        -13.63617       42.02713       17.43154
O        -13.70764       42.71536       19.71737
H        -13.10575       40.74391       21.42417
H        -13.37307       39.54069       18.65674
H        -14.99357       41.30043       18.91808
H        -14.54813       42.88386       20.21890
H        -13.82741       41.18265       16.73712
H        -14.30165       42.87242       17.15193
H        -12.58313       42.36260       17.31980
N        -10.92566       41.58408       19.80836
C         -9.48459       41.78004       19.74899
C         -8.96499       41.93350       21.16345
O         -9.48765       42.76412       21.89602
C         -9.16805       43.00866       18.87786
C         -7.65961       43.10364       18.57017
C         -7.33010       44.15474       17.49980
C         -7.56072       45.59775       17.96468
N         -7.24653       46.53854       16.88884
H        -11.47135       42.27320       20.34320
H         -8.99723       40.91079       19.25459
H         -9.55566       43.93693       19.34908
H         -9.69348       42.86532       17.90747
H         -7.33639       42.12515       18.15046
H         -7.07325       43.28956       19.49605
H         -7.93439       43.94623       16.58925
H         -6.25692       44.04743       17.22839
H         -6.90665       45.80533       18.84073
H         -8.61802       45.74445       18.26985
H         -7.89250       46.38270       16.08057
H         -7.37276       47.51568       17.23783
H         -6.25645       46.41575       16.57415
N         -7.93231       41.17496       21.62235
C         -7.47523       41.25731       23.00339
C         -8.49465       40.60936       23.93870
O         -8.98827       41.31844       24.80393
C         -6.04686       40.70056       23.17486
C         -5.02604       41.56687       22.41707
C         -3.62751       41.06500       22.62399
O         -2.70748       41.85536       23.20963
O         -3.31373       39.94506       22.25366
H         -7.45061       40.53954       20.96804
H         -7.38855       42.33158       23.29103
H         -5.96697       39.65956       22.81867
H         -5.78404       40.72910       24.25606
H         -5.08889       42.61379       22.78888
H         -5.24941       41.56928       21.32903
N         -8.91176       39.30898       23.85790
C         -8.46229       38.33685       22.88377
H         -7.39049       38.10869       23.01626
H         -9.00745       37.38074       23.03446
H         -8.67350       38.68536       21.85339
H         -9.62407       38.98849       24.53286
Ca       -19.97400       37.34470       33.22164
O        -17.17118       37.55769       34.43887
H        -16.39703       36.94343       34.38142
H        -16.86549       38.38816       33.99459
O        -19.77510       40.22813       32.65866
H        -19.99137       40.07716       31.70449
H        -18.79548       40.37073       32.67107
O        -17.55385       36.90727       31.08120
H        -17.11481       37.79487       31.08924
H        -16.89294       36.29947       31.49854
O        -19.96739       37.78284       36.16304
H        -19.47198       38.59393       35.88473
H        -20.79790       38.12858       36.57603
O        -20.70767       37.59606       30.37596
H        -21.04438       38.45325       30.01281
H        -21.49638       37.18217       30.80847

Ca 1.0



