%chk=apoCaM-CA-Ng.loop4.water4.frame733.chk
%nprocshared=20
%mem=10GB
%nosave
#b3lyp/svp scf=(tight,noincore,xqc) Test 
#IOP(5/87=12) Density=Current Pop=(MK,readradii) iop(6/33=2) iop(6/42=6)

apoCaM-CA-Ng.loop4.water4.frame733 

   -3  1 
C        108.51483       19.18851       -8.45434
C        109.89381       19.30059       -9.03143
O        110.28365       18.44964       -9.81807
H        107.99525       18.28592       -8.84092
H        108.57532       19.12419       -7.34920
H        107.92356       20.08645       -8.73345
N        110.68301       20.36084       -8.69420
C        112.02126       20.60135       -9.22812
C        111.95511       20.71228      -10.73850
O        112.67382       20.01545      -11.44409
C        113.01210       19.52082       -8.74413
C        113.08403       19.50434       -7.24555
O        113.50724       20.59247       -6.57470
O        112.75181       18.50829       -6.62808
H        110.30132       21.06489       -8.04363
H        112.37477       21.58439       -8.84425
H        114.02943       19.72752       -9.13986
H        112.69927       18.52086       -9.11577
N        111.03647       21.54592      -11.30061
C        110.81643       21.60642      -12.73851
C        111.96242       22.33416      -13.44171
O        112.40599       23.34416      -12.91326
C        109.43970       22.23069      -13.11338
C        109.31199       23.72033      -12.69753
C        108.30440       21.35868      -12.53646
C        108.00885       24.36921      -13.16136
H        110.41128       22.06747      -10.67035
H        110.74436       20.55398      -13.06023
H        109.35490       22.17746      -14.22285
H        110.13213       24.30062      -13.16708
H        109.39081       23.83387      -11.59689
H        108.42288       20.30640      -12.87298
H        108.30433       21.37404      -11.42694
H        107.31366       21.69368      -12.90036
H        107.13015       23.90383      -12.67201
H        108.01718       25.44404      -12.88409
H        107.90977       24.28633      -14.26455
N        112.51265       21.93088      -14.62736
C        112.08749       20.77086      -15.40462
C        113.12631       19.67212      -15.38746
O        112.76992       18.56009      -15.73445
C        111.70525       21.16288      -16.85165
C        112.83370       21.67559      -17.71851
O        114.09578       21.77716      -17.25886
O        112.59864       21.99050      -18.87381
H        113.29278       22.49634      -14.99547
H        111.17004       20.33129      -14.99287
H        110.91112       21.93938      -16.80895
H        111.27963       20.26891      -17.35868
N        114.41943       19.89680      -15.00935
C        115.47622       18.90683      -15.10171
C        115.75085       18.54580      -16.54655
O        116.66994       19.10183      -17.13093
H        114.70390       20.82730      -14.67518
H        115.25468       18.00872      -14.48592
H        116.40274       19.36361      -14.68667
N        115.02390       17.57468      -17.16567
C        115.24157       17.13737      -18.53938
C        113.97166       17.17793      -19.39289
O        114.03073       16.70366      -20.51934
C        115.89846       15.73210      -18.53804
C        115.17903       14.60651      -17.83201
O        114.02356       14.79121      -17.17271
O        115.68065       13.49447      -17.83505
H        114.32108       17.07323      -16.61102
H        115.97574       17.79725      -19.05201
H        116.89422       15.82768      -18.05404
H        116.06944       15.42582      -19.59284
N        112.79973       17.74430      -18.96954
C        111.58419       17.70201      -19.77503
C        111.01926       16.29369      -19.87798
O        110.13845       16.06610      -20.69339
H        112.75609       18.22805      -18.06837
H        111.81299       18.10756      -20.78397
H        110.79623       18.34428      -19.32285
N        111.44761       15.31437      -19.03151
C        110.99498       13.93156      -19.00650
C        109.50926       13.82430      -18.72019
O        108.82975       13.00035      -19.31707
C        111.46910       13.15206      -20.25440
C        113.00670       13.09883      -20.30920
C        113.50714       12.27795      -21.46885
N        114.34509       12.81371      -22.38730
O        113.17291       11.10650      -21.56707
H        112.12315       15.56342      -18.30447
H        111.47787       13.45096      -18.12550
H        111.06233       13.61443      -21.18011
H        111.09347       12.10759      -20.18846
H        113.38405       12.62945      -19.37547
H        113.41614       14.12862      -20.36812
H        114.65538       13.79369      -22.31554
H        114.69816       12.24077      -23.16827
N        108.94844       14.62754      -17.77204
C        107.56718       14.50885      -17.31677
C        107.47564       14.48806      -15.78902
O        106.35954       14.40235      -15.29409
C        106.69063       15.65272      -17.90124
C        107.17156       17.05083      -17.48457
C        106.60978       15.55263      -19.43132
H        109.52785       15.37874      -17.36992
H        107.12428       13.55302      -17.67680
H        105.65314       15.51996      -17.51973
H        106.48111       17.82208      -17.88725
H        107.17909       17.14589      -16.37955
H        108.19047       17.25687      -17.87383
H        106.21510       14.55708      -19.72925
H        105.92056       16.32632      -19.83092
H        107.60686       15.69418      -19.89506
N        108.57522       14.57650      -14.97428
C        108.48348       14.65145      -13.51867
C        109.13462       13.44314      -12.87469
O        109.72691       12.62687      -13.56913
C        109.14901       15.95465      -13.02594
C        108.51315       17.18072      -13.63418
N        107.21400       17.47808      -13.39821
O        109.18260       17.91722      -14.34366
H        109.52275       14.60798      -15.37385
H        107.41973       14.64506      -13.19740
H        110.22802       15.92927      -13.29944
H        109.07847       16.03711      -11.92056
H        106.63533       16.87642      -12.79483
H        106.78554       18.31730      -13.81639
N        108.99504       13.23427      -11.53438
C        109.50277       12.03391      -10.86821
C        108.81805       11.80175       -9.52658
O        107.94607       12.57725       -9.16391
C        111.04672       12.07026      -10.74156
C        111.57788       12.93700       -9.61563
C        111.36845       14.32744       -9.57265
C        112.31490       12.32797       -8.58239
C        111.88937       15.08639       -8.51380
C        112.83360       13.08492       -7.53417
C        112.62703       14.46230       -7.49413
O        113.14231       15.16609       -6.46771
H        108.42836       13.91666      -11.00851
H        109.23001       11.16053      -11.50151
H        111.50912       12.37261      -11.70401
H        111.37924       11.02571      -10.56091
H        110.80918       14.82570      -10.35256
H        112.49479       11.26041       -8.58472
H        111.72273       16.15612       -8.48771
H        113.39989       12.59851       -6.74959
H        113.02174       16.11828       -6.38239
N        109.15945       10.74560       -8.73248
C        108.53359       10.49912       -7.43998
C        109.57866       10.66295       -6.34726
O        110.33296        9.72617       -6.12247
C        107.89849        9.09214       -7.43286
C        107.16946        8.77691       -6.11753
C        106.59859        7.38827       -6.14802
O        107.41512        6.32547       -6.28661
O        105.39607        7.21386       -6.03426
H        109.90517       10.10340       -9.03993
H        107.70960       11.21015       -7.27077
H        108.69226        8.33263       -7.61136
H        107.16722        9.02606       -8.26889
H        106.35589        9.51949       -5.96245
H        107.87127        8.83985       -5.25939
N        109.77081       11.82914       -5.65970
C        109.06046       13.08410       -5.89910
C        107.60702       13.00588       -5.46584
O        107.33939       12.65845       -4.32355
C        109.76002       14.23670       -5.14900
C        109.19301       15.60669       -5.56184
C        109.91016       16.75468       -4.91056
O        110.93333       16.54963       -4.05711
O        109.56089       17.89534       -5.16395
H        110.54121       11.83864       -4.97157
H        109.14786       13.32840       -6.97962
H        110.83649       14.22086       -5.41626
H        109.67543       14.09190       -4.04900
H        108.11725       15.66699       -5.29247
H        109.29140       15.72277       -6.66407
N        106.61338       13.36090       -6.32644
C        105.21634       13.32618       -5.95759
H        104.59385       13.67469       -6.80981
H        104.91788       12.28864       -5.69917
H        105.03572       13.99689       -5.09099
H        106.85256       13.68933       -7.27184
Ca       111.63761       19.70341       -4.17241
O        112.46993       18.51332       -1.41263
H        111.81179       18.14477       -0.77150
H        112.76754       19.36399       -1.00259
O        113.16807       21.93589       -3.01377
H        113.75560       21.33383       -2.49166
H        112.52206       22.28851       -2.35148
O        109.19615       20.01363       -2.41131
H        109.79985       20.79511       -2.33549
H        109.60878       19.32498       -1.83174
O        114.43952       18.49487       -3.84628
H        115.01971       19.10650       -3.32704
H        114.93140       17.63596       -3.86110

Ca 1.0



