%chk=apoCaM-CA-Ng.loop1.water3.frame946.chk
%nprocshared=20
%mem=10GB
%nosave
#b3lyp/svp scf=(tight,noincore,xqc) Test 
#IOP(5/87=12) Density=Current Pop=(MK,readradii) iop(6/33=2) iop(6/42=6)

apoCaM-CA-Ng.loop1.water3.frame946 

   0  1 
C         99.04967       85.75371       61.08850
C         98.01192       84.67583       61.21928
O         97.86634       83.88445       60.29910
H        100.04748       85.28999       60.94088
H         98.81367       86.39843       60.21662
H         99.09187       86.39113       61.99731
N         97.25072       84.58763       62.34565
C         96.22950       83.56933       62.55943
C         94.85523       84.21936       62.66351
O         94.63143       85.03373       63.54129
C         96.59621       82.63224       63.74106
C         97.10180       83.18474       65.06644
O         97.38305       82.38346       65.94319
O         97.35747       84.49170       65.29411
H         97.39521       85.29378       63.07957
H         96.17895       82.89099       61.67971
H         97.42313       81.98123       63.38065
H         95.72153       81.97062       63.92800
N         93.89563       83.93344       61.73195
C         92.60297       84.61213       61.65738
C         91.72030       84.32229       62.86518
O         91.25748       83.20124       63.02345
C         91.88391       84.19217       60.35152
C         90.52324       84.86920       60.11336
C         89.91692       84.35871       58.79622
C         88.53527       84.96369       58.52302
N         87.97848       84.44061       57.27456
H         94.12765       83.25521       60.98976
H         92.80296       85.70525       61.59124
H         91.73363       83.08949       60.36718
H         92.55066       84.43654       59.49455
H         90.65257       85.97261       60.06785
H         89.83013       84.62403       60.94720
H         89.81401       83.25230       58.84909
H         90.59855       84.61194       57.95436
H         88.62065       86.06977       58.45124
H         87.84849       84.71247       59.36174
H         88.60046       84.68800       56.47068
H         87.87753       83.40082       57.33234
H         87.03510       84.86190       57.11472
N         91.42985       85.32280       63.74321
C         90.46582       85.22259       64.84266
C         89.53586       86.42494       64.81269
O         89.96182       87.49026       64.38793
C         91.16782       85.05959       66.20226
C         92.39247       85.90745       66.33140
O         92.34618       87.12462       66.39880
O         93.55559       85.25837       66.18243
H         91.91863       86.22300       63.61804
H         89.84892       84.31089       64.70554
H         91.52770       84.00612       66.22192
H         90.47734       85.17554       67.06474
N         88.22007       86.34852       65.15706
C         87.55316       85.19590       65.73777
C         86.64299       84.53998       64.73587
O         86.79229       84.76945       63.54476
H         87.63129       87.18013       64.99848
H         86.95887       85.56864       66.59969
H         88.24354       84.43249       66.14585
N         85.67684       83.67975       65.15917
C         84.73879       83.02569       64.25272
C         83.89672       84.06852       63.53012
O         83.20566       84.83899       64.18322
C         83.84405       82.04839       65.04643
C         82.91801       81.25429       64.16287
O         83.00931       80.03783       64.11936
O         81.96756       81.87261       63.43589
H         85.60574       83.49395       66.17219
H         85.32180       82.42333       63.52023
H         83.24278       82.60197       65.80017
H         84.50670       81.33927       65.59135
N         83.90432       84.13665       62.16799
C         83.10882       85.08692       61.40259
C         83.56549       86.53195       61.51404
O         82.95912       87.36805       60.85912
H         84.46477       83.45118       61.63918
H         82.04098       84.99668       61.69690
H         83.18743       84.81761       60.32649
N         84.63044       86.90560       62.27958
C         85.15386       88.26431       62.35287
C         85.07202       88.77570       63.78406
O         84.81596       87.98955       64.68782
C         86.63580       88.24608       61.88116
C         86.78954       87.67703       60.46632
O         87.17848       89.54012       61.91352
H         85.12586       86.19966       62.82383
H         84.55687       88.94255       61.70541
H         87.20241       87.58264       62.57906
H         88.16065       89.43821       62.02580
H         86.23912       88.30177       59.73289
H         87.86531       87.65907       60.18991
H         86.41133       86.63401       60.41424
N         85.29590       90.09414       64.06231
C         85.37424       90.62124       65.42317
C         84.22730       91.58138       65.74236
O         84.45835       92.66604       66.25865
C         86.80188       91.20162       65.70099
C         87.20606       92.29625       64.67188
C         87.82947       90.05321       65.72185
C         88.53309       92.98817       64.98793
H         85.43647       90.74297       63.27534
H         85.22017       89.79977       66.15743
H         86.79417       91.64540       66.72137
H         86.42323       93.08188       64.64300
H         87.29620       91.85856       63.65542
H         87.52988       89.28621       66.46783
H         87.90645       89.57319       64.72436
H         88.83382       90.41002       66.02460
H         88.48776       93.47258       65.98517
H         89.38304       92.27696       64.95708
H         88.72918       93.76747       64.22091
N         82.93889       91.16851       65.56205
C         81.77056       91.86072       66.11525
C         81.61555       93.29932       65.64501
O         81.46297       93.54695       64.45675
C         80.45469       91.09949       65.80731
C         80.42042       89.70661       66.44654
O         79.36937       91.83738       66.31475
H         82.79600       90.26485       65.08918
H         81.88464       91.86962       67.22213
H         80.36330       91.00634       64.69820
H         78.58470       91.63818       65.74015
H         80.50937       89.79332       67.55074
H         79.45283       89.21650       66.20875
H         81.23226       89.05379       66.07122
N         81.57228       94.29437       66.57879
C         81.24828       95.68693       66.29047
C         81.78380       96.56321       67.41570
O         82.61224       97.41616       67.13485
C         79.72158       95.85678       66.05451
C         79.35716       97.29333       65.66942
O         78.98698       95.50081       67.19793
H         81.73017       94.03169       67.56349
H         81.78042       95.99205       65.36017
H         79.41001       95.21571       65.19659
H         78.87666       94.51483       67.18073
H         78.26458       97.36602       65.47888
H         79.61515       98.00107       66.48585
H         79.89460       97.59304       64.74501
N         81.42356       96.34904       68.71946
C         82.07407       97.03176       69.83388
C         82.90806       96.03766       70.62299
O         82.82263       94.83975       70.40204
C         81.05105       97.68107       70.79279
C         80.23300       98.81688       70.16651
C         79.41011       99.58240       71.22827
C         78.33447       98.76104       71.96616
N         77.27125       98.31017       71.06882
H         80.74601       95.60748       68.94479
H         82.77321       97.81025       69.45970
H         81.60971       98.11840       71.64870
H         80.37285       96.89554       71.19009
H         79.58511       98.43010       69.35256
H         80.94168       99.54851       69.72131
H         78.91901      100.45361       70.74455
H         80.11546       99.98218       71.99059
H         77.88343       99.41246       72.74803
H         78.78590       97.89192       72.49071
H         77.64772       97.64971       70.35296
H         76.54229       97.81309       71.63023
H         76.82762       99.13352       70.60024
N         83.75502       96.50703       71.58205
C         84.54542       95.64942       72.45447
C         85.47323       94.72213       71.67104
O         85.38117       93.52368       71.89996
C         85.31252       96.48430       73.50854
C         84.35406       97.25464       74.43836
C         85.10968       98.04135       75.46860
O         85.87844       98.92592       75.12617
O         84.92548       97.78928       76.77838
H         83.82784       97.52708       71.69618
H         83.84785       95.00293       73.03493
H         85.99706       97.20361       73.02366
H         85.91874       95.79397       74.13598
H         83.68197       96.53181       74.94979
H         83.72354       97.96548       73.86539
N         86.37506       95.12589       70.72804
C         86.56088       96.48631       70.27232
H         87.33621       96.50502       69.47665
H         85.62160       96.87788       69.83252
H         86.91404       97.13918       71.08830
H         86.95017       94.40108       70.27027
Ca        95.67778       85.84097       65.88997
O         95.65847       87.01338       68.76124
H         95.88595       87.97321       68.84690
H         96.35733       86.54447       69.28301
O         95.92781       88.04084       63.44828
H         96.44315       88.39412       62.68013
H         95.04439       87.80599       63.06759
O         94.41940       89.35410       66.37606
H         94.54349       90.00354       67.11305
H         93.56834       89.62485       65.94814

Ca 1.0



