%chk=apoCaM-CA-Ng.loop3.water4.frame163.chk
%nprocshared=20
%mem=10GB
%nosave
#b3lyp/svp scf=(tight,noincore,xqc) Test 
#IOP(5/87=12) Density=Current Pop=(MK,readradii) iop(6/33=2) iop(6/42=6)

apoCaM-CA-Ng.loop3.water4.frame163 

   0  1 
C         46.31413       63.19312       31.35738
C         45.23529       62.63602       30.47424
O         44.06370       62.81946       30.77188
H         46.96620       63.87771       30.77622
H         45.87834       63.75040       32.21413
H         46.92888       62.35796       31.75681
N         45.57059       61.91603       29.36733
C         44.58438       61.26823       28.50583
C         43.60222       62.26256       27.89932
O         44.00160       63.09882       27.10059
C         45.26399       60.42123       27.40173
C         46.09991       61.21826       26.42567
O         45.81065       61.22394       25.24004
O         47.18008       61.90760       26.84096
H         46.57411       61.78115       29.17760
H         44.01713       60.55668       29.14571
H         44.46712       59.88468       26.84041
H         45.91474       59.65647       27.87726
N         42.28899       62.23368       28.27383
C         41.27234       63.14339       27.75947
C         40.95857       64.15950       28.83293
O         39.83356       64.25780       29.30645
C         40.01229       62.36215       27.33923
C         40.25137       61.39968       26.17215
C         38.95849       60.61895       25.88044
C         39.08884       59.62101       24.72091
N         39.26447       60.28895       23.43031
H         41.99991       61.56942       29.00816
H         41.64577       63.71828       26.88218
H         39.22667       63.08705       27.02744
H         39.63675       61.79469       28.21985
H         41.05755       60.67978       26.43208
H         40.56747       61.99143       25.28760
H         38.12246       61.32020       25.66426
H         38.69586       60.04220       26.79477
H         38.15221       59.02151       24.68043
H         39.93381       58.92335       24.91187
H         40.15884       60.82652       23.40416
H         39.29319       59.56475       22.67691
H         38.45734       60.92899       23.24676
N         41.95557       64.98002       29.24871
C         41.78213       66.02058       30.24619
C         40.73974       67.03447       29.78555
O         40.63929       67.30517       28.59664
C         43.14937       66.67738       30.49738
C         43.07763       67.76501       31.51224
O         43.39616       68.89312       31.19184
O         42.67149       67.51058       32.77073
H         42.88684       64.86051       28.81999
H         41.44660       65.55519       31.20045
H         43.54326       67.08828       29.54160
H         43.86681       65.90899       30.86128
N         39.92554       67.63295       30.69932
C         38.87487       68.58289       30.36568
C         39.38294       69.79787       29.62070
O         38.70953       70.23838       28.70001
H         40.04945       67.40234       31.69719
H         38.39804       68.92409       31.30999
H         38.08781       68.08039       29.76107
N         40.57190       70.37850       29.94702
C         41.12333       71.53850       29.24922
C         42.36737       71.19911       28.42882
O         42.89253       72.09563       27.78249
C         41.33133       72.69819       30.24223
C         42.11774       72.34461       31.51173
N         42.16678       73.49364       32.40748
O         43.41499       71.91955       31.22086
H         41.12709       69.96143       30.70745
H         40.40158       71.91702       28.49179
H         40.31932       73.01310       30.57860
H         41.79649       73.56639       29.72595
H         41.19049       73.78907       32.63655
H         42.59531       73.18547       33.30609
N         42.83330       69.92195       28.31240
C         43.87807       69.53513       27.37827
C         45.22421       70.12735       27.70129
O         45.77525       70.83511       26.87002
H         42.37549       69.16369       28.82953
H         43.56599       69.82285       26.34993
H         43.98952       68.42889       27.39352
N         45.83865       69.82635       28.87750
C         47.19082       70.25316       29.21701
C         47.14081       71.13135       30.44210
O         46.65340       70.69912       31.47690
C         48.06637       69.01510       29.46180
C         48.14419       68.16099       28.21957
C         48.80999       68.62860       27.07273
C         47.54189       66.89265       28.19429
C         48.87417       67.83715       25.92205
C         47.59959       66.10703       27.04007
C         48.26861       66.57624       25.90009
O         48.33502       65.82654       24.78159
H         45.33873       69.22983       29.55294
H         47.64212       70.83473       28.38341
H         47.61992       68.43565       30.29923
H         49.09447       69.31092       29.76538
H         49.28451       69.60237       27.07069
H         47.01625       66.51639       29.06311
H         49.39435       68.20521       25.04623
H         47.12297       65.13500       27.03349
H         47.92878       64.94980       24.72578
N         47.58775       72.41318       30.36491
C         47.45196       73.38332       31.43969
C         46.36395       74.36514       31.03208
O         45.47444       74.61671       31.83132
C         48.81194       74.04931       31.78609
C         49.91967       73.00399       32.10539
C         48.65922       75.04194       32.95791
C         49.65059       72.09945       33.31677
H         47.98488       72.73823       29.47163
H         47.10619       72.88385       32.36220
H         49.15678       74.62372       30.89845
H         50.87626       73.54153       32.28646
H         50.07241       72.35389       31.21775
H         48.28565       74.53572       33.87263
H         49.63519       75.51816       33.19150
H         47.94226       75.84791       32.70538
H         50.50208       71.39770       33.44419
H         49.56085       72.68889       34.25180
H         48.73382       71.49323       33.17428
N         46.28681       74.86417       29.76168
C         45.12505       75.62532       29.31608
C         45.03422       76.99296       29.96699
O         44.00018       77.62793       29.82054
C         45.08675       75.72833       27.78588
O         46.20666       76.42349       27.31285
H         47.00592       74.61168       29.07006
H         44.21845       75.04639       29.60973
H         44.15672       76.24869       27.46689
H         45.07656       74.69133       27.37449
H         46.23664       76.25821       26.33467
N         46.05246       77.49640       30.72890
C         45.96212       78.73350       31.48939
C         44.83760       78.60471       32.49808
O         43.93046       79.42743       32.51871
C         45.83310       79.95269       30.56228
H         46.92803       76.96581       30.82718
H         46.90949       78.86060       32.06009
H         46.70013       79.98762       29.86863
H         44.90190       79.92247       29.96116
H         45.82957       80.88690       31.16290
N         44.84323       77.55181       33.36595
C         43.78947       77.30627       34.34866
C         44.12576       76.14580       35.28023
O         45.11931       75.46142       35.08450
C         42.45374       77.00997       33.64522
H         45.65073       76.91200       33.31766
H         43.69389       78.21624       34.98145
H         41.64470       76.83425       34.38416
H         42.13097       77.85263       33.00344
H         42.55672       76.10771       33.00722
N         43.34600       75.91776       36.37433
C         43.59595       74.90022       37.39250
C         45.02169       75.00084       37.92420
O         45.69567       73.98634       38.04892
C         43.26896       73.47277       36.89104
C         41.82993       73.33187       36.37877
C         41.52825       71.90548       36.00965
O         42.17435       71.33993       35.14412
O         40.53833       71.24162       36.63579
H         42.55468       76.55762       36.54587
H         42.90663       75.11283       38.23939
H         43.41224       72.76242       37.73613
H         43.96764       73.19017       36.08379
H         41.67996       73.97909       35.48819
H         41.12312       73.65076       37.17338
N         45.56050       76.21865       38.21245
C         46.92016       76.39551       38.68281
H         47.50047       76.96388       37.92531
H         46.90733       76.96760       39.63258
H         47.43787       75.42961       38.86316
H         44.99974       77.06878       38.05367
Ca        43.95431       70.63851       33.04536
O         46.55096       70.34276       35.11531
H         46.43566       71.00354       35.84402
H         46.74864       69.49377       35.58208
O         46.00063       68.07429       32.74562
H         46.97775       68.21058       32.82586
H         45.88181       67.09186       32.77100
O         44.03664       68.46738       35.38638
H         44.23404       67.52039       35.59735
H         43.16719       68.64501       35.82526
O         45.38212       72.67364       34.21006
H         44.84884       72.99708       33.44627
H         46.09813       73.34266       34.32623

Ca 1.0



