%chk=apoCaM-CA-Ng.loop1.water3.frame750.chk
%nprocshared=20
%mem=10GB
%nosave
#b3lyp/svp scf=(tight,noincore,xqc) Test 
#IOP(5/87=12) Density=Current Pop=(MK,readradii) iop(6/33=2) iop(6/42=6)

apoCaM-CA-Ng.loop1.water3.frame750 

   0  1 
C        -10.07597       33.50864       46.51727
C         -9.28136       34.57566       45.82376
O         -9.79235       35.20510       44.90823
H        -11.09355       33.42488       46.07940
H         -9.55932       32.53157       46.41693
H        -10.17352       33.75961       47.59497
N         -8.01136       34.84706       46.23173
C         -7.19804       35.90248       45.63830
C         -6.91745       35.65377       44.16120
O         -6.26396       34.67879       43.82304
C         -5.87809       36.10915       46.42786
C         -4.96517       34.90979       46.56447
O         -5.26788       33.81443       46.11981
O         -3.79830       35.04898       47.22101
H         -7.63559       34.30739       47.02684
H         -7.76215       36.85689       45.73454
H         -6.13544       36.43851       47.45755
H         -5.30783       36.93021       45.94141
N         -7.38460       36.51814       43.21514
C         -7.05021       36.38786       41.80089
C         -5.57285       36.69488       41.60099
O         -5.08369       37.66598       42.16231
C         -7.91512       37.33477       40.94025
C         -7.67248       37.18255       39.41833
C         -7.94925       35.77366       38.83700
C         -9.39068       35.26276       38.99840
N        -10.35657       36.09227       38.27831
H         -7.98836       37.30056       43.51162
H         -7.29635       35.35433       41.47976
H         -7.70698       38.38798       41.23055
H         -8.98774       37.13874       41.15131
H         -6.61514       37.44275       39.19918
H         -8.29847       37.92672       38.88404
H         -7.27662       35.02960       39.29997
H         -7.69776       35.77897       37.75807
H         -9.66583       35.19915       40.07281
H         -9.43429       34.23024       38.58542
H        -10.10163       36.14124       37.26489
H        -11.30422       35.65925       38.36502
H        -10.39485       37.05298       38.68550
N         -4.81647       35.93347       40.76474
C         -3.38360       36.13309       40.55863
C         -2.94131       35.43033       39.27494
O         -3.29442       34.27456       39.09006
C         -2.60466       35.65585       41.80651
C         -2.93744       34.24367       42.20903
O         -2.65985       33.30114       41.48651
O         -3.57934       34.02172       43.37029
H         -5.28492       35.17748       40.24787
H         -3.17033       37.21214       40.44983
H         -2.88330       36.31965       42.65329
H         -1.51007       35.76450       41.64785
N         -2.16080       36.01971       38.32016
C         -1.52227       37.32329       38.41866
C         -2.45040       38.51182       38.32182
O         -3.65828       38.35917       38.20972
H         -1.91265       35.45158       37.49433
H         -0.81201       37.42148       37.56828
H         -0.93052       37.37318       39.35769
N         -1.89913       39.75915       38.35508
C         -2.65578       41.00175       38.24478
C         -3.39340       41.09319       36.91912
O         -4.59973       41.29205       36.93383
C         -1.75338       42.24590       38.46571
C         -0.65732       42.45326       37.44799
O          0.33374       41.55260       37.30555
O         -0.64807       43.46248       36.76131
H         -0.87884       39.81540       38.48418
H         -3.40364       41.02837       39.06962
H         -1.28481       42.17986       39.47104
H         -2.41104       43.14391       38.46365
N         -2.73544       40.95297       35.73109
C         -3.38301       41.07050       34.43245
C         -4.39318       39.98070       34.12486
O         -4.96624       40.03351       33.04513
H         -1.72048       40.78055       35.73562
H         -2.60300       41.02093       33.64156
H         -3.87545       42.06450       34.36333
N         -4.66947       38.96756       34.99583
C         -5.62935       37.90440       34.72997
C         -4.91903       36.56115       34.80496
O         -3.74958       36.51471       35.17009
C         -6.78902       37.98940       35.76082
C         -7.47950       39.36047       35.76003
O         -7.75163       36.98993       35.54257
H         -4.18384       38.92693       35.89670
H         -6.05204       38.01291       33.70682
H         -6.36027       37.83627       36.77455
H         -8.16602       37.15754       34.65561
H         -6.76133       40.16777       36.00424
H         -7.92816       39.57010       34.76597
H         -8.28273       39.37288       36.52708
N         -5.56237       35.41569       34.45153
C         -4.91906       34.10650       34.46583
C         -3.73623       34.14001       33.51092
O         -2.63436       33.82001       33.93282
C         -5.94292       32.97520       34.15274
C         -7.14779       32.97520       35.14751
C         -5.26008       31.59493       34.15352
C         -6.77706       32.85808       36.63353
H         -6.53306       35.48541       34.11842
H         -4.52296       33.90284       35.48467
H         -6.35817       33.13450       33.13262
H         -7.82813       32.13599       34.88630
H         -7.74127       33.90481       35.03194
H         -4.47060       31.54802       33.37515
H         -4.79222       31.37512       35.13534
H         -6.00260       30.80061       33.92476
H         -6.22147       31.92250       36.84281
H         -6.17523       33.72840       36.96795
H         -7.70428       32.85018       37.24362
N         -3.87510       34.65655       32.25428
C         -2.72559       34.95726       31.40151
C         -2.96173       34.54838       29.95893
O         -4.04760       34.10190       29.61824
C         -2.38500       36.46934       31.51242
C         -3.53286       37.38862       31.06869
O         -2.04799       36.75961       32.84444
H         -4.80482       34.99491       31.96466
H         -1.83278       34.39374       31.75078
H         -1.50120       36.67482       30.86664
H         -1.49855       37.58644       32.83533
H         -3.21293       38.44879       31.15222
H         -3.81005       37.19102       30.01235
H         -4.42611       37.25347       31.71309
N         -1.95165       34.69531       29.05090
C         -2.08090       34.38879       27.63472
C         -1.12672       33.25915       27.27918
O         -1.59698       32.20836       26.86439
C         -1.86535       35.68597       26.79989
C         -2.06230       35.45683       25.30073
O         -0.58769       36.23479       27.00298
H         -1.04107       35.04693       29.38013
H         -3.11398       34.03872       27.41305
H         -2.63920       36.43090       27.10501
H         -0.64001       36.82582       27.79890
H         -3.08570       35.07649       25.09978
H         -1.93297       36.41831       24.75750
H         -1.31717       34.73197       24.91041
N          0.22356       33.40647       27.40388
C          1.19043       32.37499       27.05169
C          2.15955       32.17818       28.20331
O          2.71959       33.16089       28.67294
C          1.92604       32.81121       25.77309
C          2.82326       31.69332       25.21874
C          3.43827       32.10099       23.87566
C          4.26293       30.95482       23.27583
N          4.82221       31.33778       21.97997
H          0.59968       34.31039       27.72210
H          0.67675       31.41740       26.81132
H          2.51499       33.73751       25.95391
H          1.15394       33.03599       25.00337
H          2.20146       30.78411       25.05981
H          3.62910       31.45037       25.94522
H          4.08432       32.99447       24.01871
H          2.62213       32.35952       23.16519
H          3.61131       30.06235       23.13980
H          5.08880       30.68384       23.97024
H          5.36951       30.53568       21.59240
H          4.05241       31.57416       21.31202
H          5.45741       32.16099       22.09157
N          2.44627       30.93592       28.68675
C          3.37908       30.74106       29.79319
C          2.80631       31.29334       31.09439
O          3.44107       32.17801       31.65073
C          3.83556       29.27106       29.95101
C          4.65095       28.80059       28.73511
C          5.15965       27.40203       28.93434
O          4.37725       26.47493       29.06964
O          6.48519       27.16317       28.95667
H          2.02661       30.11470       28.22487
H          4.31410       31.30495       29.56559
H          2.98559       28.58295       30.11940
H          4.50075       29.21041       30.84183
H          5.52164       29.47962       28.59759
H          4.03353       28.83229       27.81299
N          1.64702       30.86685       31.68188
C          0.73494       29.86476       31.16800
H         -0.27226       30.31610       31.05314
H          1.02099       29.46185       30.18574
H          0.66838       29.02443       31.89072
H          1.37698       31.30019       32.57877
Ca        -4.42457       31.97864       43.82835
O         -2.17765       31.38663       45.61381
H         -2.20032       32.30568       45.98193
H         -1.41976       31.39208       44.97670
O         -5.68970       32.34515       40.79870
H         -6.51107       32.38905       40.24784
H         -4.95140       32.33008       40.13949
O         -4.00097       29.30893       42.50177
H         -3.85937       28.95359       43.41523
H         -3.09377       29.54861       42.18551

Ca 1.0



