%chk=apoCaM-CA-Ng.loop1.water3.frame707.chk
%nprocshared=20
%mem=10GB
%nosave
#b3lyp/svp scf=(tight,noincore,xqc) Test 
#IOP(5/87=12) Density=Current Pop=(MK,readradii) iop(6/33=2) iop(6/42=6)

apoCaM-CA-Ng.loop1.water3.frame707 

   0  1 
C         97.47621      121.28156       -5.05735
C         98.94353      121.25397       -4.74027
O         99.71170      121.84186       -5.48819
H         96.88363      120.73137       -4.29678
H         97.12583      122.33520       -5.08166
H         97.29766      120.81877       -6.05059
N         99.40668      120.58658       -3.64333
C        100.81651      120.54311       -3.26743
C        101.35085      119.12300       -3.36953
O        100.88771      118.23712       -2.66621
C        101.04494      121.18747       -1.88003
C        100.31659      120.58984       -0.69739
O         99.56727      119.63390       -0.81035
O        100.49194      121.14160        0.51782
H         98.72528      120.08607       -3.05652
H        101.40718      121.16603       -3.97352
H        100.73466      122.25273       -1.94956
H        102.13444      121.16379       -1.66202
N        102.30873      118.83339       -4.29488
C        102.81349      117.48750       -4.53324
C        103.70775      117.03163       -3.39611
O        104.77270      117.60317       -3.20589
C        103.55246      117.47439       -5.88496
C        104.08191      116.10282       -6.31622
C        104.58710      116.19853       -7.76264
C        105.15054      114.87166       -8.27660
N        105.52382      114.99013       -9.68689
H        102.63301      119.59414       -4.91216
H        101.94017      116.80473       -4.63828
H        104.39778      118.19875       -5.86670
H        102.81783      117.81957       -6.64648
H        103.26352      115.35153       -6.27099
H        104.90127      115.78925       -5.63401
H        105.37618      116.97921       -7.83650
H        103.73296      116.49566       -8.41120
H        104.38521      114.07138       -8.16994
H        106.04404      114.59169       -7.67609
H        106.23586      115.74614       -9.81242
H        105.92675      114.08376      -10.01577
H        104.67741      115.21009      -10.26200
N        103.31561      116.00960       -2.58471
C        104.12167      115.49779       -1.47881
C        104.12412      113.96643       -1.44942
O        103.30707      113.35883       -2.12736
C        103.66699      116.13928       -0.14188
C        102.18290      116.37322       -0.05340
O        101.76683      117.51664        0.04902
O        101.30161      115.36085       -0.13064
H        102.37380      115.61382       -2.72097
H        105.18060      115.78328       -1.65428
H        104.14639      117.14162       -0.08274
H        104.01433      115.55774        0.73704
N        105.05854      113.24277       -0.75232
C        106.13707      113.82299        0.03652
C        107.47712      113.60401       -0.62133
O        107.61907      113.92335       -1.79276
H        105.03079      112.21337       -0.82340
H        106.10669      113.42132        1.07257
H        106.04409      114.91557        0.12900
N        108.54471      113.18122        0.11030
C        109.89988      113.11502       -0.43089
C        110.04875      111.93495       -1.37109
O        109.74103      110.81859       -0.97402
C        110.92256      113.01184        0.72263
C        112.36388      113.13613        0.28371
O        113.33885      113.08828        1.21001
O        112.66442      113.30666       -0.88780
H        108.40336      113.00370        1.11715
H        110.12241      114.07567       -0.94942
H        110.78368      112.05288        1.26600
H        110.73349      113.84680        1.43221
N        110.57496      112.09995       -2.61928
C        110.79805      110.98410       -3.52372
C        109.51963      110.41690       -4.09394
O        109.60286      109.41859       -4.79643
H        110.88895      113.03534       -2.91726
H        111.36393      110.19191       -2.98450
H        111.41794      111.31751       -4.38304
N        108.30812      111.00245       -3.86755
C        107.05533      110.48182       -4.39089
C        106.14150      110.08827       -3.24711
O        106.48449      110.28144       -2.08668
C        106.39870      111.50146       -5.36190
C        106.02624      112.83271       -4.70386
O        107.26935      111.76246       -6.43279
H        108.25490      111.85496       -3.29665
H        107.23772      109.55191       -4.97335
H        105.44758      111.07685       -5.75862
H        107.14025      111.03517       -7.09659
H        105.52477      113.48034       -5.45118
H        105.32568      112.67058       -3.86030
H        106.92588      113.36903       -4.34082
N        104.95814      109.47757       -3.51807
C        104.04187      108.99057       -2.48892
C        104.67032      107.81965       -1.71536
O        104.13394      107.44659       -0.68385
C        102.68893      108.61467       -3.17243
C        102.06882      109.88412       -3.83147
C        101.66548      107.97657       -2.21225
C        101.06945      109.54432       -4.93526
H        104.71303      109.33568       -4.51016
H        103.85043      109.82012       -1.76958
H        102.93222      107.87053       -3.96379
H        102.84026      110.50285       -4.33334
H        101.60530      110.53051       -3.05321
H        101.43369      108.66730       -1.37313
H        100.72331      107.72937       -2.73955
H        102.04120      107.01835       -1.80319
H        100.67552      110.48383       -5.37704
H        101.59258      108.97970       -5.73853
H        100.21866      108.94380       -4.56255
N        105.82815      107.22188       -2.13490
C        106.51359      106.15654       -1.40612
C        106.67433      104.92362       -2.29014
O        106.23741      104.94411       -3.43140
C        107.85906      106.69646       -0.85798
C        108.80333      107.23821       -1.93855
O        107.58204      107.72584        0.05881
H        106.27007      107.53018       -3.00893
H        105.91632      105.83489       -0.52541
H        108.37369      105.85993       -0.33169
H        108.25093      107.66217        0.78962
H        108.36125      108.11678       -2.45132
H        109.74984      107.57559       -1.46622
H        109.03804      106.45487       -2.68799
N        107.27316      103.79373       -1.80122
C        107.37802      102.55003       -2.55798
C        106.62420      101.46377       -1.80090
O        105.61418      100.99771       -2.31235
C        108.86464      102.21923       -2.85934
C        109.01303      100.94279       -3.69609
O        109.60671      102.10059       -1.67389
H        107.64235      103.80031       -0.84052
H        106.88344      102.66746       -3.54848
H        109.26596      103.07415       -3.45418
H        110.56075      102.24044       -1.91127
H        108.46201      101.04428       -4.65507
H        110.08556      100.76826       -3.92858
H        108.62556      100.06063       -3.14416
N        107.03966      101.02231       -0.57660
C        106.30121      100.05869        0.23118
C        106.12971      100.61708        1.63199
O        107.12999      100.86805        2.29236
C        107.04237       98.70838        0.26313
C        106.27126       97.67221        1.10542
C        106.84400       96.25208        1.03303
C        108.27292       96.13843        1.58116
N        108.72319       94.74717        1.55317
H        107.91834      101.38618       -0.18300
H        105.30273       99.86341       -0.21975
H        108.06782       98.84766        0.66734
H        107.12221       98.33762       -0.78241
H        105.22392       97.62027        0.73471
H        106.24969       97.99612        2.16694
H        106.81573       95.89637       -0.01959
H        106.18113       95.59573        1.63916
H        108.30121       96.51094        2.62936
H        108.96536       96.75344        0.96748
H        108.10600       94.15823        2.15877
H        108.70444       94.38262        0.57285
H        109.70202       94.69500        1.91619
N        104.88749      100.83919        2.14700
C        104.66105      101.36559        3.48834
C        104.19036      102.82038        3.43957
O        104.90805      103.64083        3.99495
C        103.72852      100.45190        4.31381
C        104.32968       99.05516        4.54934
C        103.45552       98.17325        5.40525
O        102.38440       98.56847        5.84043
O        103.86559       96.92486        5.69883
H        104.07443      100.62476        1.55727
H        105.62322      101.38932        4.05055
H        102.75145      100.32528        3.81570
H        103.56509      100.92879        5.30579
H        105.31317       99.15968        5.05643
H        104.47835       98.54830        3.57475
N        103.05585      103.28470        2.83200
C        102.08278      102.50447        2.09977
H        101.27996      103.17607        1.72865
H        102.53714      102.03980        1.20683
H        101.59670      101.75689        2.74975
H        102.87189      104.29898        2.88815
Ca        99.11017      115.93491       -0.19399
O         99.33817      115.10261       -3.17069
H         98.82996      114.28333       -2.94505
H        100.23435      114.77270       -3.43015
O         97.39634      117.81181       -2.44189
H         96.64260      118.35904       -2.10577
H         97.14963      117.59643       -3.37628
O         99.87905      117.70561        2.29992
H        100.47636      116.94054        2.49673
H         99.02270      117.46977        2.73653

Ca 1.0



