%chk=apoCaM-CA-Ng.loop3.water2.frame954.chk
%nprocshared=20
%mem=10GB
%nosave
#b3lyp/svp scf=(tight,noincore,xqc) Test 
#IOP(5/87=12) Density=Current Pop=(MK,readradii) iop(6/33=2) iop(6/42=6)

apoCaM-CA-Ng.loop3.water2.frame954 

   0  1 
C         76.23191      118.74828       40.95864
C         76.02305      120.20887       41.24222
O         74.92642      120.70359       41.02588
H         77.26110      118.42483       41.22455
H         75.52078      118.15478       41.57369
H         76.05405      118.53471       39.88607
N         77.02460      120.95132       41.78779
C         76.81693      122.30248       42.28960
C         76.90718      123.35285       41.17926
O         77.90955      123.39730       40.47998
C         77.83038      122.57359       43.42113
C         77.45066      123.74160       44.28209
O         78.20063      124.09823       45.17557
O         76.26829      124.36496       44.12922
H         77.91293      120.47414       42.00913
H         75.82161      122.32937       42.76837
H         78.84149      122.71995       42.98347
H         77.87415      121.69934       44.10531
N         75.89735      124.25588       40.99175
C         75.88780      125.30370       39.95578
C         77.00176      126.34327       40.09679
O         77.13266      127.17060       39.20455
C         74.54453      126.07369       40.01115
C         73.34821      125.20406       39.60549
C         72.02304      125.91776       39.90858
C         70.82562      125.06533       39.46818
N         69.56046      125.72749       39.78634
H         75.08505      124.18547       41.62134
H         76.00233      124.82008       38.96069
H         74.55624      126.95253       39.32820
H         74.41549      126.45367       41.05055
H         73.36402      124.24670       40.15566
H         73.42778      124.97295       38.52109
H         71.99099      126.89667       39.38285
H         71.95541      126.10032       41.00463
H         70.85827      124.07838       39.97975
H         70.88322      124.89185       38.37109
H         69.49889      126.64651       39.29201
H         68.76918      125.11885       39.47529
H         69.47931      125.88219       40.81645
N         77.80926      126.40039       41.18756
C         78.79466      127.45857       41.41087
C         79.96545      126.92452       42.22498
O         81.09673      127.08768       41.78774
C         78.11452      128.76022       41.92509
C         77.08860      128.54106       42.99800
O         75.90382      128.65196       42.72485
O         77.43368      128.13364       44.22388
H         77.62971      125.73754       41.94924
H         79.25356      127.75937       40.44094
H         77.55709      129.17639       41.05680
H         78.86123      129.52535       42.22733
N         79.77519      126.20137       43.36240
C         80.85441      125.58360       44.11882
C         80.87536      126.04472       45.55603
O         81.72567      125.57451       46.29808
H         78.81845      126.03811       43.69465
H         81.84737      125.80096       43.66925
H         80.71233      124.48152       44.10184
N         79.99037      126.97423       46.01922
C         80.00606      127.51165       47.36653
C         78.67491      127.28566       48.06778
O         77.70424      126.87855       47.44455
C         80.29442      129.02244       47.26335
C         81.62138      129.27380       46.58619
N         81.68486      129.91004       45.39147
O         82.65002      128.88531       47.11866
H         79.29710      127.37576       45.38636
H         80.79640      127.01579       47.97073
H         80.30475      129.49684       48.26629
H         79.47723      129.49538       46.67121
H         80.83102      130.23355       44.91341
H         82.59438      130.06889       44.93240
N         78.58547      127.52725       49.40425
C         77.36958      127.42301       50.19603
C         76.69109      126.07098       50.11248
O         77.35671      125.04687       50.16144
H         79.44124      127.81647       49.90208
H         76.65921      128.22174       49.89115
H         77.63768      127.60965       51.25780
N         75.32773      126.01451       50.05958
C         74.55038      124.77792       49.98223
C         74.69155      124.11729       48.62215
O         75.44421      124.60557       47.78927
C         73.05014      125.09167       50.24993
C         72.78519      125.45827       51.68778
C         72.23436      126.70338       52.02624
C         73.05015      124.52432       52.70652
C         71.95420      127.00806       53.36301
C         72.77340      124.83174       54.03909
C         72.22239      126.07130       54.37340
O         71.94927      126.34676       55.66428
H         74.81188      126.90699       50.11121
H         74.90200      124.05483       50.74842
H         72.40547      124.21123       50.06762
H         72.70842      125.88486       49.54988
H         72.01196      127.43270       51.25757
H         73.46089      123.55044       52.47053
H         71.52267      127.96889       53.61154
H         72.97984      124.10023       54.81061
H         71.55585      127.18675       55.93916
N         73.95597      122.99997       48.33415
C         73.91390      122.29695       47.05779
C         73.43766      123.22146       45.94022
O         74.07856      124.22321       45.67753
C         75.27387      121.61641       46.72409
C         75.21073      120.78039       45.41404
C         75.75550      120.73930       47.89475
C         74.20907      119.61851       45.40280
H         73.35307      122.60435       49.07033
H         73.17518      121.47614       47.17144
H         76.04363      122.40315       46.57089
H         76.21888      120.36023       45.21011
H         74.94794      121.45013       44.57617
H         76.72720      120.26298       47.64384
H         75.91053      121.35432       48.80566
H         75.01712      119.94737       48.13738
H         74.43577      118.87990       46.19740
H         73.16776      119.97694       45.51944
H         74.26969      119.09670       44.42426
N         72.35182      122.89576       45.18291
C         71.97994      123.65941       43.99341
C         70.48802      123.93719       43.87244
O         70.10662      124.53718       42.87485
C         72.47043      122.87514       42.77359
O         71.87689      121.60670       42.72877
H         71.87281      122.00307       45.36437
H         72.49788      124.64241       43.97278
H         73.57417      122.77764       42.86040
H         72.22875      123.43023       41.84986
H         72.44401      121.05756       42.12778
N         69.57511      123.52321       44.79426
C         68.13518      123.65331       44.57332
C         67.60911      124.99548       45.04977
O         68.33975      125.68642       45.74701
C         67.43129      122.51345       45.29693
H         69.89792      123.01586       45.63144
H         67.93053      123.55974       43.48322
H         67.76013      121.54100       44.86841
H         67.66771      122.53005       46.38105
H         66.34721      122.61605       45.19769
N         66.38521      125.50144       44.69410
C         65.41599      124.91077       43.76345
C         63.99104      125.07981       44.29261
O         63.68942      126.16940       44.76086
C         65.50673      125.68211       42.44337
H         66.17520      126.45637       45.02733
H         65.64616      123.86176       43.50593
H         64.78355      125.26858       41.70702
H         65.28584      126.76120       42.59390
H         66.52900      125.58544       42.01937
N         62.99866      124.14576       44.17019
C         63.11948      122.82812       43.55709
C         63.88301      121.90074       44.47284
O         64.81984      121.25552       44.02455
C         61.71206      122.24922       43.27021
C         61.77422      120.96706       42.42256
C         60.39454      120.46554       42.10461
O         59.56679      120.08667       43.09692
O         60.01960      120.39061       40.94498
H         62.05763      124.43284       44.48682
H         63.61525      122.93009       42.56557
H         61.13859      123.00324       42.68592
H         61.16614      122.06158       44.22147
H         62.32922      120.16855       42.95809
H         62.30869      121.19040       41.47181
N         63.52729      121.79345       45.78495
C         64.24353      120.96299       46.72815
H         65.29987      121.29154       46.80376
H         63.78591      121.05965       47.73621
H         64.20482      119.90063       46.41304
H         62.73110      122.34528       46.13927
Ca        76.12284      126.46065       44.87467
O         73.32709      127.25338       43.65691
H         72.39242      127.13842       43.35240
H         73.43306      128.23159       43.76564
O         73.47667      126.94017       46.82840
H         73.29654      127.40532       47.68325
H         72.58619      126.83866       46.40734

Ca 1.0



