%chk=apoCaM-CA-Ng.loop4.water5.frame620.chk
%nprocshared=20
%mem=10GB
%nosave
#b3lyp/svp scf=(tight,noincore,xqc) Test 
#IOP(5/87=12) Density=Current Pop=(MK,readradii) iop(6/33=2) iop(6/42=6)

apoCaM-CA-Ng.loop4.water5.frame620 

   -3  1 
C        105.68914       33.88408       81.97009
C        106.93985       34.43829       81.35626
O        106.93639       34.79553       80.18740
H        104.85873       33.86135       81.23434
H        105.88034       32.85186       82.33292
H        105.38894       34.51818       82.83182
N        108.05983       34.54650       82.11975
C        109.33858       35.08330       81.66745
C        109.19416       36.53119       81.24139
O        109.69083       36.92529       80.19387
C        109.97630       34.18870       80.58404
C        110.05295       32.76950       81.06451
O        110.71909       32.47532       82.19623
O        109.47652       31.88391       80.45437
H        108.00511       34.24377       83.10524
H        110.01776       35.08300       82.55006
H        111.00068       34.55173       80.35174
H        109.37583       34.22795       79.64898
N        108.48192       37.38156       82.02989
C        108.30347       38.79524       81.72143
C        109.62462       39.54108       81.91207
O        110.40342       39.11707       82.75701
C        107.15190       39.43304       82.56441
C        107.40938       39.33783       84.09783
C        105.80939       38.79050       82.15945
C        106.31424       39.97089       84.95544
H        108.01879       36.97826       82.85316
H        107.99559       38.83728       80.65669
H        107.08510       40.50972       82.29049
H        108.36239       39.85517       84.33438
H        107.49984       38.28606       84.43211
H        105.78285       37.70898       82.40683
H        104.95394       39.29525       82.65023
H        105.64921       38.90561       81.06845
H        106.18379       41.04107       84.69558
H        105.35070       39.43410       84.83497
H        106.59958       39.88989       86.02579
N        110.00953       40.62144       81.16861
C        109.22104       41.24119       80.10897
C        109.83456       40.99647       78.74394
O        109.22014       41.42024       77.77888
C        109.02499       42.75660       80.35629
C        110.28930       43.57322       80.23555
O        111.31236       43.39349       81.09130
O        110.38149       44.42556       79.36591
H        110.94830       41.00415       81.34954
H        108.20437       40.81699       80.08338
H        108.57049       42.92221       81.35593
H        108.30081       43.13370       79.59772
N        111.02140       40.34532       78.55406
C        111.60129       40.15681       77.23253
C        111.84447       41.50133       76.59014
O        112.58217       42.29767       77.15364
H        111.55045       39.97848       79.35861
H        110.90727       39.54081       76.61888
H        112.56416       39.60911       77.31362
N        111.18693       41.84336       75.44587
C        111.20893       43.19241       74.88353
C        109.85277       43.88142       75.03090
O        109.77507       45.07029       74.75375
C        111.73238       43.20508       73.42426
C        110.99317       42.36751       72.40541
O        109.96669       41.57053       72.74218
O        111.35948       42.39098       71.24168
H        110.58189       41.13288       75.01128
H        111.90820       43.82592       75.47103
H        112.78580       42.85400       73.42854
H        111.72642       44.25828       73.06780
N        108.74665       43.21194       75.46847
C        107.43853       43.81162       75.65478
C        106.47107       43.31929       74.60314
O        105.30204       43.66611       74.67856
H        108.78895       42.20048       75.62781
H        107.47766       44.91999       75.58969
H        107.07411       43.54283       76.67079
N        106.90807       42.55122       73.55724
C        106.11780       42.13239       72.41225
C        105.08072       41.07411       72.75051
O        104.37234       40.66485       71.84083
C        105.55260       43.37702       71.66889
C        106.66401       44.40319       71.32196
C        107.71606       43.89925       70.35591
N        108.81842       44.64462       70.11239
O        107.58604       42.82398       69.79014
H        107.89436       42.29660       73.50291
H        106.80094       41.61357       71.70956
H        104.80363       43.88827       72.30858
H        105.02904       43.06972       70.73878
H        107.16964       44.71224       72.26177
H        106.20865       45.31820       70.88603
H        108.96029       45.54785       70.58749
H        109.54444       44.30610       69.46318
N        104.95459       40.54609       74.00744
C        103.96682       39.52577       74.35261
C        104.58149       38.28090       75.00454
O        103.81519       37.39684       75.35989
C        102.88310       40.14616       75.28086
C        103.44084       40.60377       76.63921
C        102.17611       41.31796       74.58296
H        105.55331       40.89466       74.76720
H        103.43891       39.17326       73.43930
H        102.11306       39.36768       75.47778
H        104.19954       41.40542       76.52340
H        102.61882       40.99582       77.27399
H        103.89639       39.74748       77.17457
H        101.35530       41.70572       75.22191
H        102.88407       42.14964       74.38006
H        101.73715       40.98128       73.61962
N        105.92511       38.13563       75.21903
C        106.49939       37.01284       75.96934
C        107.40344       36.16111       75.09380
O        107.53937       36.44382       73.91180
C        107.24955       37.58224       77.19202
C        106.28551       38.29076       78.11038
N        106.37852       39.62282       78.32007
O        105.40088       37.65232       78.66130
H        106.57825       38.85859       74.88427
H        105.70747       36.32553       76.33900
H        108.04311       38.27738       76.83852
H        107.74270       36.78305       77.78376
H        107.09848       40.17912       77.84441
H        105.71397       40.10533       78.94241
N        108.04242       35.07316       75.62438
C        108.88277       34.16825       74.84868
C        108.40587       32.74301       75.07297
O        108.41807       32.28966       76.20817
C        110.35451       34.37731       75.25622
C        111.31937       33.64151       74.35252
C        111.45813       32.24390       74.41238
C        112.09836       34.36497       73.43153
C        112.35410       31.58547       73.56340
C        112.98647       33.70467       72.57952
C        113.11896       32.31493       72.64129
O        113.98307       31.69433       71.81313
H        107.94052       34.87768       76.63143
H        108.81596       34.42206       73.76778
H        110.53773       34.11762       76.32189
H        110.54412       35.46914       75.15450
H        110.88436       31.66141       75.11994
H        112.01079       35.44227       73.36150
H        112.45311       30.50902       73.62336
H        113.57145       34.27597       71.86954
H        114.10755       30.73479       71.82334
N        107.94348       31.98729       74.03625
C        107.41701       30.63372       74.21402
C        108.52935       29.67795       74.61980
O        109.43320       29.50229       73.81282
C        106.82626       30.09181       72.88417
C        105.64909       30.90762       72.33414
C        105.19359       30.33231       71.02057
O        105.23822       31.00876       70.00500
O        104.74389       29.06427       70.95406
H        107.93824       32.40945       73.09644
H        106.60586       30.66752       74.96705
H        106.47939       29.04605       73.04719
H        107.62823       30.07401       72.11075
H        105.95299       31.96272       72.17200
H        104.80609       30.89057       73.05610
N        108.58464       28.98423       75.79600
C        107.70084       29.10188       76.95824
C        106.26350       28.71944       76.67173
O        106.01635       27.65288       76.12608
C        108.20261       28.19256       78.10572
C        109.58903       28.60638       78.62746
C        110.03053       27.70119       79.73827
O        110.19495       26.50893       79.53334
O        110.26045       28.20290       80.96452
H        109.37865       28.33074       75.87790
H        107.73166       30.14206       77.34343
H        108.22396       27.13504       77.75830
H        107.48993       28.26364       78.95936
H        109.53618       29.65103       78.99990
H        110.35623       28.56370       77.82857
N        105.25709       29.52557       77.11993
C        103.84950       29.20632       77.00180
H        103.32790       30.02840       76.47029
H        103.67371       28.25579       76.45762
H        103.41346       29.11042       78.02035
H        105.49450       30.39590       77.62015
Ca       110.65395       30.37120       83.00066
O        107.68591       29.90181       81.99086
H        106.97502       30.14304       82.63626
H        107.69972       28.91181       81.99415
O        112.87246       28.22633       82.42754
H        112.94877       27.60665       81.65901
H        113.80177       28.34256       82.74771
O        112.92565       30.90821       80.92732
H        113.79039       31.13942       81.35034
H        112.81020       31.58068       80.20996
O        109.68327       27.78424       84.13136
H        110.54608       27.58225       84.57338
H        109.02437       27.20595       84.59075
O        112.55841       30.65973       85.26925
H        112.08518       29.88580       85.66651
H        113.37362       30.27087       84.86363

Ca 1.0



