%chk=apoCaM-CA-Ng.loop4.water6.frame865.chk
%nprocshared=20
%mem=10GB
%nosave
#b3lyp/svp scf=(tight,noincore,xqc) Test 
#IOP(5/87=12) Density=Current Pop=(MK,readradii) iop(6/33=2) iop(6/42=6)

apoCaM-CA-Ng.loop4.water6.frame865 

   -3  1 
C         52.97604       63.14162       76.79324
C         53.63849       63.93003       75.69718
O         54.69102       64.50139       75.92379
H         52.02176       62.68986       76.45013
H         53.64094       62.32482       77.13581
H         52.74872       63.80746       77.64856
N         53.07840       63.98935       74.46124
C         53.61053       64.75965       73.34320
C         55.05130       64.37258       73.01511
O         55.90303       65.23856       72.86169
C         53.41971       66.27604       73.59783
C         53.70083       67.14828       72.39672
O         54.03643       66.66916       71.32408
O         53.55850       68.48228       72.50508
H         52.21501       63.45126       74.28975
H         52.98622       64.49591       72.46061
H         54.06472       66.59959       74.44297
H         52.36080       66.45506       73.88455
N         55.39040       63.06286       72.88891
C         56.70722       62.62977       72.42599
C         56.83372       62.94026       70.92780
O         55.85522       62.71367       70.22940
C         56.94821       61.10487       72.69603
C         55.90715       60.16970       72.01567
C         57.03779       60.84954       74.21496
C         56.28068       58.68895       72.08365
H         54.67296       62.36117       73.11440
H         57.48151       63.15531       73.01704
H         57.94398       60.85994       72.27549
H         55.83887       60.40823       70.93733
H         54.90147       60.29734       72.46565
H         57.82435       61.49284       74.66567
H         56.07224       61.06683       74.71746
H         57.32873       59.80282       74.43354
H         55.51359       58.09594       71.54190
H         57.26404       58.52221       71.59460
H         56.31667       58.31884       73.12679
N         57.97019       63.37535       70.29821
C         59.25881       63.68107       70.90576
C         59.81222       64.95043       70.25358
O         60.93217       64.94108       69.75850
C         60.18333       62.45819       70.68286
C         61.53369       62.59815       71.32607
O         62.54550       62.54058       70.64519
O         61.63557       62.75721       72.65897
H         57.93037       63.43584       69.26752
H         59.15583       63.86299       71.99029
H         60.29787       62.28254       69.58907
H         59.70906       61.55538       71.11294
N         59.03689       66.06784       70.13956
C         59.46835       67.22695       69.36900
C         60.31500       68.20261       70.15234
O         60.81025       69.14241       69.54664
H         58.06409       66.03969       70.47993
H         58.57787       67.78720       69.01381
H         60.01216       66.88440       68.46077
N         60.47661       68.09041       71.50023
C         61.22537       69.05111       72.30173
C         62.37046       68.38907       73.03926
O         63.42871       68.99918       73.11585
C         60.29812       69.85989       73.23861
C         59.49934       69.05799       74.23050
O         58.68361       68.23418       73.85041
O         59.62050       69.30732       75.54815
H         60.00849       67.31646       71.98714
H         61.68481       69.82957       71.65065
H         59.58018       70.43007       72.60971
H         60.91773       70.60255       73.79037
N         62.26903       67.13795       73.58029
C         63.37949       66.53145       74.28990
C         63.65479       67.22545       75.60330
O         64.70862       66.97751       76.17022
H         61.40850       66.58478       73.47473
H         64.27942       66.57566       73.63654
H         63.17339       65.46114       74.50604
N         62.73897       68.06881       76.17860
C         62.96377       68.78948       77.42728
C         63.16900       67.85231       78.61353
O         63.53169       68.33037       79.67823
C         64.08759       69.83162       77.22221
C         63.62177       70.88677       76.19661
C         64.71044       71.85526       75.82701
N         65.10289       71.98178       74.53624
O         65.23288       72.54256       76.69125
H         61.83324       68.21777       75.72001
H         62.05222       69.37421       77.68674
H         65.01776       69.33481       76.87729
H         64.31123       70.35548       78.17697
H         62.76052       71.45111       76.61774
H         63.26855       70.38439       75.27477
H         64.66536       71.41947       73.79093
H         65.84174       72.64996       74.27438
N         62.83860       66.52715       78.53170
C         62.89944       65.59908       79.65882
C         61.50907       65.11870       80.06864
O         61.41590       64.43382       81.08052
C         63.79990       64.37469       79.31184
C         63.27639       63.57057       78.10110
C         65.24898       64.80466       79.05913
H         62.47377       66.16047       77.64558
H         63.32299       66.11228       80.54946
H         63.80782       63.69156       80.19022
H         63.90808       62.67296       77.93467
H         62.23670       63.22269       78.27444
H         63.29884       64.16881       77.16637
H         65.31606       65.48248       78.18477
H         65.65303       65.32755       79.95088
H         65.88223       63.91324       78.86124
N         60.39928       65.37227       79.31474
C         59.08453       64.81417       79.59801
C         58.01404       65.90237       79.51916
O         58.32036       67.03263       79.15773
C         58.88277       63.67457       78.56939
C         57.59136       62.91008       78.65983
N         56.77058       62.83312       77.58700
O         57.29630       62.32954       79.69421
H         60.48849       65.89066       78.42982
H         59.05561       64.37445       80.62032
H         59.70236       62.93702       78.71800
H         58.99380       64.09528       77.54655
H         57.01448       63.29735       76.69937
H         55.89622       62.29392       77.63640
N         56.72536       65.62148       79.85244
C         55.61411       66.55822       79.74714
C         54.95404       66.71236       81.09310
O         54.60071       65.70077       81.68351
C         54.59512       65.98483       78.75125
C         53.36812       66.85237       78.58863
C         52.10342       66.37315       78.97309
C         53.47578       68.14508       78.05139
C         50.96952       67.17684       78.83063
C         52.33903       68.94571       77.90509
C         51.08385       68.46729       78.29591
O         49.99818       69.25388       78.15342
H         56.50073       64.67447       80.18971
H         55.94906       67.54961       79.37048
H         54.29831       64.96902       79.09679
H         55.09482       65.88532       77.77255
H         51.99213       65.38118       79.39294
H         54.43846       68.53138       77.74204
H         50.00396       66.79615       79.13729
H         52.43490       69.93997       77.48787
H         49.11327       68.96164       78.41515
N         54.70293       67.94505       81.61804
C         54.00416       68.12522       82.88089
C         52.69644       68.85314       82.63661
O         52.75017       70.04948       82.38470
C         54.92550       68.87184       83.87456
C         54.32740       69.09862       85.27691
C         53.25146       70.14938       85.29955
O         53.53406       71.41090       84.91800
O         52.12470       69.87234       85.67783
H         54.98559       68.78576       81.08945
H         53.80085       67.14780       83.33338
H         55.25482       69.84663       83.45014
H         55.83305       68.24177       83.99881
H         55.13576       69.45928       85.94751
H         53.94869       68.13333       85.67772
N         51.46631       68.25384       82.66085
C         51.18838       66.81366       82.68125
C         51.66632       66.09187       83.92557
O         51.32440       66.48349       85.03236
C         49.67655       66.58537       82.47896
C         49.32569       65.11031       82.21391
C         47.90664       64.94377       81.74158
O         47.49040       63.74085       81.31025
O         47.15093       65.89981       81.65606
H         50.65745       68.88291       82.52780
H         51.68868       66.37566       81.79121
H         49.38565       67.15920       81.57121
H         49.09298       66.97665       83.34236
H         49.50605       64.48796       83.11718
H         49.97586       64.73967       81.39247
N         52.45279       64.98536       83.79032
C         52.96417       64.23437       84.91283
H         53.62134       64.87996       85.53160
H         52.12547       63.84307       85.52474
H         53.56359       63.37335       84.54232
H         52.69190       64.64772       82.84649
Ca        45.57353       63.69269       80.11942
O         45.14751       61.57195       81.91564
H         44.70320       60.71387       82.12642
H         45.56864       61.85807       82.76477
O         47.93774       65.01479       78.48249
H         48.66437       64.36074       78.64043
H         47.84575       65.05324       77.49784
O         42.91044       62.87902       79.19848
H         42.44690       63.61952       79.66468
H         42.33428       62.08825       79.34707
O         45.21060       66.91958       79.34192
H         46.03301       67.40864       79.08678
H         44.47016       67.49543       79.02482
O         43.85504       65.22308       82.10387
H         44.56182       65.72667       82.58018
H         43.50579       64.58817       82.77843
O         44.74423       64.43164       77.14673
H         44.93945       63.47889       76.96009
H         45.14730       64.92178       76.38690

Ca 1.0



