%chk=apoCaM-CA-Ng.loop2.water3.frame796.chk
%nprocshared=20
%mem=10GB
%nosave
#b3lyp/svp scf=(tight,noincore,xqc) Test 
#IOP(5/87=12) Density=Current Pop=(MK,readradii) iop(6/33=2) iop(6/42=6)

apoCaM-CA-Ng.loop2.water3.frame796 

   -2  1 
C         12.43697      -24.11189       83.45291
C         12.99951      -25.02386       84.49856
O         13.50148      -26.08336       84.15147
H         11.36518      -23.91340       83.65586
H         13.00159      -23.15597       83.46476
H         12.53627      -24.56722       82.44344
N         12.94832      -24.67762       85.81692
C         13.56405      -25.49657       86.85370
C         15.06690      -25.40917       86.66642
O         15.61908      -24.33292       86.85503
C         13.12872      -25.00391       88.25275
C         13.64133      -25.83347       89.40134
O         13.29453      -25.49686       90.65818
O         14.35297      -26.80847       89.21692
H         12.46741      -23.80287       86.07869
H         13.19598      -26.54111       86.73477
H         12.01780      -25.02716       88.29725
H         13.45663      -23.95155       88.39750
N         15.76788      -26.46879       86.17185
C         17.15957      -26.35201       85.74662
C         17.19786      -26.24747       84.22943
O         16.23719      -26.67167       83.60108
C         17.95509      -27.57029       86.22235
H         15.25670      -27.33635       85.94442
H         17.60129      -25.44039       86.18169
H         17.52703      -28.49915       85.78427
H         19.01682      -27.50137       85.91249
H         17.91483      -27.64857       87.32837
N         18.23116      -25.70593       83.51926
C         19.44821      -25.09418       84.05476
C         19.15613      -23.85894       84.90543
O         18.49345      -22.94367       84.43988
C         20.44673      -24.76456       82.91271
C         19.97593      -23.77769       81.87049
O         20.67754      -22.65058       81.65994
O         19.00978      -24.01642       81.16395
H         18.12736      -25.75089       82.49611
H         19.97342      -25.84582       84.67841
H         20.70700      -25.71114       82.39124
H         21.37935      -24.37008       83.37251
N         19.65203      -23.78342       86.17663
C         19.41978      -22.68766       87.11441
C         18.86570      -23.22746       88.42280
O         18.61054      -24.42151       88.50153
H         20.25157      -24.55396       86.51021
H         18.74175      -21.91544       86.69836
H         20.40248      -22.21697       87.32914
N         18.69664      -22.46172       89.54041
C         18.95720      -21.02891       89.64598
C         17.84314      -20.24077       88.98839
O         16.68982      -20.43601       89.35146
C         19.03264      -20.61436       91.13478
C         20.17748      -21.30304       91.83941
N         19.95287      -22.12805       92.88877
O         21.32238      -21.11114       91.45699
H         18.39546      -22.95604       90.39625
H         19.94459      -20.78201       89.19773
H         18.07029      -20.85283       91.64039
H         19.19380      -19.51633       91.21265
H         18.99677      -22.30701       93.22812
H         20.74024      -22.59558       93.36246
N         18.11331      -19.29464       88.04617
C         17.03812      -18.50698       87.45424
C         17.43117      -17.42423       86.45535
O         16.50775      -16.81948       85.92769
H         19.09419      -19.15253       87.78910
H         16.47609      -17.99833       88.26906
H         16.34030      -19.20439       86.94485
N         18.71918      -17.07249       86.15040
C         19.02368      -15.98465       85.21565
C         18.56880      -16.31104       83.79729
O         18.10090      -17.41242       83.54087
C         20.53070      -15.60980       85.24757
C         20.94369      -15.06080       86.61879
O         21.31742      -16.72267       84.91076
H         19.50661      -17.53345       86.61622
H         18.45746      -15.08310       85.53902
H         20.70785      -14.79112       84.51496
H         22.18723      -16.37440       84.58139
H         20.81581      -15.81667       87.41990
H         22.00928      -14.75009       86.59374
H         20.32960      -14.16797       86.86720
N         18.67760      -15.36415       82.82027
C         18.17826      -15.53163       81.46261
C         19.34193      -15.79461       80.51813
O         20.22588      -14.95795       80.40103
C         17.39458      -14.24932       81.02992
C         16.91621      -14.28226       79.55311
C         16.21850      -13.94993       81.97786
C         15.89794      -15.37596       79.24334
H         19.10793      -14.45759       83.05344
H         17.48522      -16.40020       81.42354
H         18.09530      -13.38705       81.10357
H         17.79219      -14.41479       78.88155
H         16.46065      -13.30109       79.29781
H         16.57781      -13.79459       83.01593
H         15.70208      -13.01864       81.65818
H         15.48515      -14.78201       81.98994
H         15.61785      -15.33313       78.17297
H         16.33646      -16.36509       79.45501
H         14.97032      -15.24881       79.83441
N         19.36780      -16.94376       79.78258
C         20.36490      -17.26478       78.76443
C         19.72761      -17.43941       77.37854
O         20.47510      -17.66801       76.43754
C         21.09850      -18.57177       79.13207
C         21.95483      -18.46487       80.36871
O         21.69843      -19.22649       81.44940
O         22.91871      -17.71757       80.37979
H         18.61561      -17.62193       79.93474
H         21.11080      -16.44497       78.67829
H         21.78229      -18.86284       78.30569
H         20.34788      -19.38423       79.23788
N         18.38085      -17.33092       77.15813
C         17.75603      -17.45547       75.84348
C         16.61365      -18.47892       75.88073
O         15.46479      -18.09491       75.70687
C         17.31805      -16.03710       75.40126
C         16.59745      -15.98574       74.07103
C         15.33901      -15.36145       73.98415
C         17.16554      -16.54020       72.90975
C         14.66399      -15.29451       72.76246
C         16.47958      -16.48190       71.69196
C         15.23163      -15.85787       71.61791
H         17.75622      -17.09773       77.93599
H         18.48521      -17.80207       75.08196
H         18.23488      -15.41321       75.32078
H         16.68097      -15.58320       76.18645
H         14.88219      -14.91647       74.85972
H         18.13208      -17.02450       72.94258
H         13.70024      -14.80498       72.70388
H         16.91676      -16.91925       70.80385
H         14.70511      -15.80875       70.67357
N         16.84596      -19.81939       76.06046
C         15.80728      -20.84456       75.99666
C         14.91475      -20.90245       77.23044
O         14.01892      -21.73527       77.25336
C         16.60228      -22.13358       75.77272
C         17.86896      -21.86494       76.55455
C         18.16108      -20.41057       76.19486
H         15.14737      -20.69612       75.11283
H         16.06605      -23.07673       76.01339
H         16.89699      -22.16984       74.69842
H         17.60612      -21.91473       77.63523
H         18.71092      -22.56141       76.35534
H         18.76952      -19.96008       77.00309
H         18.68181      -20.32088       75.21556
N         15.05299      -20.02908       78.26565
C         14.09230      -19.93238       79.36126
C         12.76401      -19.52454       78.76838
O         11.77719      -20.21476       78.98323
C         14.54798      -18.88433       80.39823
C         15.57084      -19.42450       81.41404
C         16.80979      -20.06483       80.86897
O         17.54904      -20.80239       81.71365
O         17.36814      -19.58313       79.90176
H         15.81104      -19.34012       78.22508
H         13.97287      -20.90485       79.89090
H         13.68178      -18.56448       81.01852
H         14.91347      -17.98178       79.87521
H         15.06934      -20.17444       82.05889
H         15.88762      -18.58028       82.06696
N         12.68173      -18.43469       77.95764
C         11.45110      -18.06002       77.30183
H         10.68033      -17.80516       78.05792
H         11.62677      -17.18085       76.64678
H         11.09273      -18.90234       76.67095
H         13.52794      -17.87659       77.76593
Ca        19.61783      -19.99851       81.63264
O         17.29178      -20.17703       84.50904
H         16.37902      -19.90608       84.23997
H         17.15243      -20.73569       85.31299
O         22.40759      -21.30428       83.65774
H         22.44874      -21.43073       84.63839
H         22.78832      -20.40274       83.50964
O         20.35551      -19.87556       85.50257
H         20.75784      -19.24054       84.85963
H         21.01211      -19.92837       86.24208

Ca 1.0



