%chk=apoCaM-CA-Ng.loop4.water4.frame663.chk
%nprocshared=20
%mem=10GB
%nosave
#b3lyp/svp scf=(tight,noincore,xqc) Test 
#IOP(5/87=12) Density=Current Pop=(MK,readradii) iop(6/33=2) iop(6/42=6)

apoCaM-CA-Ng.loop4.water4.frame663 

   -3  1 
C        -23.21898       68.70522       11.40498
C        -23.90272       69.99688       11.74215
O        -24.41770       70.65432       10.84957
H        -22.15397       68.75258       11.71396
H        -23.71767       67.87204       11.94533
H        -23.27003       68.50156       10.31431
N        -23.96441       70.40654       13.04070
C        -24.64244       71.61554       13.50269
C        -26.10746       71.56317       13.10913
O        -26.62543       72.51220       12.53845
C        -23.93975       72.89571       12.99205
C        -22.50746       72.95321       13.43414
O        -22.11850       73.86409       14.14708
O        -21.64326       72.00418       13.03214
H        -23.53486       69.80448       13.76055
H        -24.59864       71.62344       14.61480
H        -24.47662       73.78620       13.38691
H        -23.96714       72.94410       11.88255
N        -26.81658       70.42178       13.32849
C        -28.17666       70.23033       12.82661
C        -29.19994       70.96769       13.68630
O        -28.87629       71.27105       14.82646
C        -28.51408       68.71580       12.66480
C        -28.43631       67.94159       14.01278
C        -27.60028       68.11344       11.57855
C        -28.78751       66.45974       13.89091
H        -26.30509       69.63275       13.74205
H        -28.18230       70.66205       11.81455
H        -29.55028       68.62235       12.28554
H        -29.14789       68.40254       14.73059
H        -27.42435       67.99028       14.45955
H        -26.53344       68.14210       11.88195
H        -27.88410       67.06863       11.34610
H        -27.71361       68.68626       10.63207
H        -28.04971       65.92752       13.25574
H        -28.75112       65.99182       14.89725
H        -29.80569       66.33400       13.46929
N        -30.45338       71.32321       13.25242
C        -30.98515       71.17133       11.89224
C        -30.10423       71.93231       10.91958
O        -29.62182       71.34903        9.95792
C        -32.43598       71.70034       11.83270
C        -33.04510       71.53429       10.46720
O        -33.16145       70.42315        9.97485
O        -33.47453       72.61294        9.78488
H        -31.05822       71.79728       13.94316
H        -31.02167       70.09830       11.61532
H        -32.46008       72.77477       12.11797
H        -33.06062       71.13777       12.56085
N        -29.76087       73.21915       11.19266
C        -28.71170       73.92688       10.48730
C        -29.03166       74.33088        9.07606
O        -30.11099       74.06966        8.56362
H        -30.15453       73.67170       12.03179
H        -27.79093       73.30783       10.48207
H        -28.49227       74.86287       11.04550
N        -28.08715       75.05139        8.41167
C        -28.27348       75.63983        7.09273
C        -28.44548       74.63647        5.96022
O        -28.82553       75.07676        4.88432
C        -27.12832       76.64607        6.79186
C        -25.73218       76.09746        6.99414
O        -24.92731       76.65318        7.92029
O        -25.31825       75.15721        6.34246
H        -27.21678       75.25963        8.92517
H        -29.21641       76.23028        7.12505
H        -27.23971       77.49552        7.50006
H        -27.23348       77.05444        5.76371
N        -28.20373       73.29823        6.08875
C        -28.41617       72.36222        4.98728
C        -27.51653       72.58739        3.77604
O        -27.69196       71.87975        2.79554
H        -27.88591       72.91693        6.99138
H        -29.47795       72.43488        4.66532
H        -28.24153       71.32489        5.34729
N        -26.52486       73.52625        3.77185
C        -25.61913       73.79659        2.66016
C        -24.75192       72.59408        2.32663
O        -24.26420       72.49412        1.20860
C        -26.37057       74.41056        1.45644
C        -26.99860       75.75875        1.85857
C        -27.71753       76.42697        0.71774
N        -29.02801       76.75162        0.82400
O        -27.10624       76.70309       -0.30362
H        -26.37071       74.08378        4.60914
H        -24.89202       74.57160        2.99325
H        -27.14958       73.71295        1.08195
H        -25.64781       74.60108        0.63304
H        -26.19629       76.44428        2.20850
H        -27.70445       75.60283        2.69731
H        -29.55850       76.54397        1.68307
H        -29.51383       77.22654        0.04906
N        -24.43593       71.69143        3.29894
C        -23.51947       70.57300        3.11883
C        -22.34340       70.64092        4.10404
O        -21.50447       69.75476        4.04918
C        -24.29562       69.22476        3.25378
C        -25.02159       69.06974        4.60457
C        -25.30504       69.06282        2.10640
H        -24.86202       71.80371        4.22987
H        -23.06968       70.59371        2.10150
H        -23.56566       68.39067        3.16042
H        -25.82018       69.83171        4.72827
H        -25.50706       68.07171        4.66227
H        -24.30742       69.15401        5.44915
H        -25.81509       68.07798        2.17578
H        -26.07602       69.86000        2.13449
H        -24.78173       69.10851        1.12768
N        -22.23544       71.62445        5.05526
C        -21.23197       71.60638        6.12091
C        -20.60629       72.99808        6.32728
O        -21.00267       73.94033        5.65830
C        -21.97752       71.07436        7.36658
C        -21.14774       70.91028        8.60800
N        -21.47863       71.57267        9.73986
O        -20.17912       70.16501        8.59965
H        -22.96463       72.34449        5.13000
H        -20.41199       70.89704        5.87454
H        -22.38500       70.06922        7.11602
H        -22.84064       71.74252        7.57495
H        -22.29998       72.19509        9.76711
H        -20.91534       71.45913       10.59341
N        -19.60912       73.18438        7.25056
C        -18.96820       74.46973        7.54799
C        -17.45351       74.33965        7.34327
O        -16.98329       73.22893        7.14119
C        -19.27408       74.80280        9.03031
C        -18.85887       76.18246        9.48745
C        -17.77382       76.34523       10.36294
C        -19.58123       77.31707        9.08323
C        -17.39899       77.61186       10.81039
C        -19.22039       78.58740        9.55091
C        -18.12522       78.73967       10.40974
O        -17.78443       79.96834       10.84831
H        -19.27741       72.37502        7.78756
H        -19.37715       75.26051        6.88274
H        -18.77363       74.02736        9.65196
H        -20.36442       74.70643        9.22909
H        -17.21503       75.49374       10.70239
H        -20.43811       77.21549        8.42923
H        -16.55025       77.71152       11.47589
H        -19.79528       79.45406        9.25029
H        -17.03329       80.11119       11.44253
N        -16.62322       75.42670        7.37726
C        -15.16733       75.31073        7.27999
C        -14.50592       76.11679        8.39043
O        -14.22067       77.28508        8.16088
C        -14.67282       75.77891        5.89017
C        -13.14576       75.59491        5.74410
C        -12.66205       75.99769        4.38321
O        -12.80175       77.14612        3.99379
O        -12.04306       75.09749        3.59567
H        -17.03406       76.36901        7.45498
H        -14.84924       74.25310        7.34755
H        -14.94607       76.84453        5.72290
H        -15.17830       75.16700        5.11141
H        -12.88696       74.52796        5.92006
H        -12.60157       76.20803        6.49346
N        -14.23486       75.63089        9.63456
C        -14.58478       74.31307       10.15613
C        -13.83205       73.18272        9.48354
O        -12.61187       73.23272        9.40372
C        -14.28001       74.29074       11.67406
C        -14.83526       73.07913       12.44030
C        -16.33671       73.10160       12.53821
O        -16.91717       73.29302       13.73731
O        -17.03602       72.94617       11.55073
H        -13.79463       76.29852       10.28956
H        -15.66651       74.17127       10.01240
H        -14.70906       75.19884       12.15382
H        -13.17626       74.33298       11.81272
H        -14.43800       73.14763       13.47589
H        -14.48602       72.11884       12.00564
N        -14.50694       72.08519        9.04240
C        -13.83477       70.94058        8.46859
H        -13.09906       70.53001        9.19395
H        -14.57594       70.14532        8.23790
H        -13.31488       71.23211        7.53293
H        -15.53071       72.03829        9.15604
Ca       -19.48645       72.07747       13.65021
O        -17.72469       70.82781       15.69213
H        -17.62311       71.53667       16.37592
H        -16.81789       70.71757       15.31025
O        -18.22156       69.86278       11.99388
H        -19.06037       69.33842       11.95050
H        -18.25403       70.44746       11.19550
O        -19.98837       75.04672       12.53011
H        -20.09680       75.98721       12.24095
H        -19.04136       74.83165       12.34131
O        -19.34770       74.16808       15.94545
H        -19.83587       75.02611       16.02138
H        -19.25092       73.85258       16.87897

Ca 1.0



