%chk=apoCaM-CA-Ng.loop1.water4.frame169.chk
%nprocshared=20
%mem=10GB
%nosave
#b3lyp/svp scf=(tight,noincore,xqc) Test 
#IOP(5/87=12) Density=Current Pop=(MK,readradii) iop(6/33=2) iop(6/42=6)

apoCaM-CA-Ng.loop1.water4.frame169 

   0  1 
C         98.57642       51.31989       38.33667
C         99.60258       51.16465       37.25083
O        100.21204       50.10837       37.15995
H         97.77875       50.55874       38.20766
H         99.05788       51.18012       39.32691
H         98.10785       52.32680       38.31372
N         99.83955       52.18031       36.37300
C        100.79557       52.07610       35.27196
C        102.26207       52.04026       35.71983
O        103.11907       51.96241       34.85086
C        100.55969       53.20195       34.23674
C        100.94233       54.57900       34.70546
O        101.77462       55.21299       34.07919
O        100.35471       55.13819       35.78008
H         99.26055       53.02880       36.45457
H        100.57017       51.13367       34.72799
H         99.48819       53.20395       33.94100
H        101.15131       52.96762       33.32306
N        102.63088       52.07499       37.03674
C        104.01495       52.05519       37.50165
C        104.29305       50.74332       38.23083
O        103.50785       50.41416       39.10971
C        104.25591       53.20799       38.50233
C        104.03921       54.63298       37.97093
C        104.99458       55.01583       36.82910
C        105.00348       56.53163       36.54833
N        103.69808       57.04872       36.14056
H        101.90866       52.10283       37.76763
H        104.70961       52.18723       36.66283
H        105.29890       53.14185       38.88146
H        103.57979       53.07348       39.37557
H        104.23541       55.31285       38.82910
H        102.98283       54.76473       37.65499
H        104.73344       54.45075       35.90822
H        106.03213       54.74746       37.12371
H        105.74103       56.73465       35.74038
H        105.34210       57.07214       37.45998
H        103.78427       58.07269       35.94775
H        103.39012       56.57241       35.26724
H        102.98965       56.91990       36.89758
N        105.39111       49.94675       38.02218
C        106.50191       50.16773       37.09635
C        107.14344       51.53533       37.31424
O        107.15034       52.33806       36.39077
C        106.08583       49.91264       35.62402
C        105.60222       48.50841       35.36305
O        105.28129       48.18717       34.23010
O        105.52590       47.59605       36.35147
H        105.47993       49.11619       38.62976
H        107.28730       49.41437       37.30837
H        106.97619       50.07527       34.97867
H        105.29809       50.61378       35.29850
N        107.71614       51.90683       38.49606
C        107.89660       51.01306       39.63418
C        108.56479       51.70101       40.82194
O        108.70993       52.91515       40.80651
H        108.08722       52.86752       38.54604
H        108.55347       50.18590       39.28787
H        106.92691       50.60078       39.97989
N        109.05887       51.00911       41.89176
C        109.05606       49.55443       42.01060
C        110.43827       49.01255       41.69755
O        111.40556       49.76237       41.71828
C        108.52991       49.07123       43.38438
C        109.31352       49.57975       44.57138
O        109.96521       48.71333       45.36991
O        109.32219       50.76831       44.84962
H        109.56689       51.55461       42.60297
H        108.38199       49.11915       41.24669
H        108.55929       47.95947       43.39416
H        107.47024       49.38020       43.51034
N        110.57369       47.72328       41.27609
C        111.83075       47.14958       40.82692
C        111.74689       46.86327       39.34633
O        111.83966       45.71229       38.94647
H        109.73173       47.13073       41.21013
H        112.02684       46.22134       41.40506
H        112.68697       47.83868       40.99292
N        111.59160       47.89888       38.47281
C        111.49081       47.75461       37.01833
C        111.54882       49.13943       36.38381
O        110.84299       50.03293       36.83370
C        110.21649       46.98030       36.60569
C        110.19853       46.71536       35.09777
O        109.06032       47.68652       36.96422
H        111.56991       48.84799       38.87844
H        112.36911       47.17042       36.66272
H        110.20716       45.97541       37.08482
H        108.90615       47.51611       37.92971
H        111.09996       46.13830       34.79697
H        109.30485       46.12028       34.83410
H        110.16827       47.66308       34.52366
N        112.41412       49.39358       35.36137
C        112.75109       50.74674       34.92302
C        112.18318       51.13499       33.56524
O        112.44655       52.25962       33.15896
C        114.29503       50.96226       35.00814
C        115.07818       50.06056       34.01320
C        114.76515       50.75478       36.46198
C        116.57432       50.37521       33.95511
H        112.91238       48.59986       34.93570
H        112.29465       51.48887       35.61566
H        114.49720       52.02349       34.74086
H        114.67454       50.21556       32.98978
H        114.96413       48.98768       34.27186
H        115.83548       51.01138       36.58449
H        114.19240       51.41726       37.14544
H        114.61380       49.70158       36.78261
H        117.05744       49.72527       33.19516
H        116.73336       51.43567       33.66702
H        117.07070       50.17696       34.92617
N        111.34103       50.33289       32.84586
C        110.68274       50.79872       31.62034
C        109.18768       50.95288       31.85136
O        108.69288       50.54373       32.89354
C        111.01485       49.89935       30.40857
C        110.49015       48.46610       30.55369
O        112.40797       49.87578       30.23026
H        111.09666       49.40274       33.21105
H        111.04533       51.81875       31.36515
H        110.53318       50.35716       29.51188
H        112.57619       49.67754       29.27186
H        110.73710       47.88770       29.63826
H        110.95375       47.95532       31.42205
H        109.38634       48.46589       30.67391
N        108.42380       51.63207       30.94741
C        107.01648       51.96021       31.17028
C        106.16261       51.51090       29.99008
O        106.70453       51.07763       28.98137
C        106.90989       53.50138       31.37208
C        107.73976       53.97142       32.57405
O        105.57912       53.89000       31.58147
H        108.88171       52.01768       30.10599
H        106.63320       51.45088       32.08166
H        107.29848       53.99324       30.44757
H        105.53514       54.86317       31.39188
H        107.65097       55.07336       32.68328
H        107.36939       53.49142       33.50509
H        108.81424       53.73035       32.43995
N        104.80314       51.63428       30.04519
C        103.92120       51.42105       28.89966
C        102.86105       50.34864       29.12978
O        102.17050       50.01261       28.17799
C        103.31863       52.78947       28.49872
C        102.40220       53.43924       29.56820
C        102.06765       54.91042       29.24962
C        103.28309       55.84160       29.45575
N        102.95441       57.23253       29.15157
H        104.38548       51.96215       30.92498
H        104.52334       51.07218       28.03238
H        102.74699       52.70113       27.54904
H        104.19004       53.44242       28.29803
H        102.85343       53.43118       30.57974
H        101.46382       52.84559       29.61769
H        101.27403       55.24690       29.95281
H        101.67295       54.99182       28.21449
H        104.13628       55.54019       28.81559
H        103.60577       55.77579       30.51757
H        103.79888       57.82530       29.32695
H        102.68420       57.32224       28.14558
H        102.17560       57.56552       29.76424
N        102.65935       49.77598       30.35155
C        101.67507       48.72939       30.60906
C        100.50593       49.32150       31.35808
O        100.69785       49.88834       32.42451
C        102.31279       47.61401       31.45587
C        103.29666       46.75360       30.65899
C        104.07406       45.88870       31.60495
O        103.44437       45.09193       32.48994
O        105.28984       45.96254       31.62280
H        103.19260       50.11769       31.16267
H        101.28808       48.28652       29.66447
H        101.52635       46.93187       31.85143
H        102.82172       48.08638       32.32722
H        104.01025       47.39168       30.09388
H        102.73076       46.12794       29.93387
N         99.24783       49.20591       30.84546
C         98.06488       49.73125       31.49201
H         97.36924       48.89462       31.71339
H         98.29908       50.25787       32.44028
H         97.56184       50.44346       30.80538
H         99.10895       48.70969       29.95193
Ca       104.65640       44.17190       34.16675
O        107.40686       45.30287       33.34781
H        107.44241       44.67113       32.58652
H        107.53425       46.19724       32.94167
O        106.90169       44.85349       36.51778
H        107.68040       44.66274       35.93790
H        107.24646       45.49158       37.19139
O        102.37880       47.38138       35.80878
H        102.40560       47.29786       36.79517
H        102.63266       48.32222       35.63300
O        101.77724       44.17869       35.13740
H        101.99956       43.22091       35.01889
H        100.86920       44.27237       34.75462

Ca 1.0



