%chk=apoCaM-CA-Ng.loop4.water4.frame77.chk
%nprocshared=20
%mem=10GB
%nosave
#b3lyp/svp scf=(tight,noincore,xqc) Test 
#IOP(5/87=12) Density=Current Pop=(MK,readradii) iop(6/33=2) iop(6/42=6)

apoCaM-CA-Ng.loop4.water4.frame77 

   -3  1 
C         55.52515       71.88401       36.71086
C         56.61225       72.87951       36.43469
O         56.96686       73.62866       37.33071
H         54.66459       72.07875       36.03649
H         55.90389       70.85613       36.53314
H         55.17568       71.96163       37.76294
N         57.16467       72.94974       35.18873
C         58.17833       73.90484       34.74641
C         59.17533       74.33385       35.80811
O         59.12829       75.47563       36.20625
C         57.53783       75.08419       33.97249
C         56.60705       76.02291       34.71897
O         56.26368       75.86331       36.01666
O         56.12955       76.96309       34.10483
H         56.77908       72.32574       34.46300
H         58.80497       73.39107       33.98278
H         56.97327       74.66427       33.11187
H         58.36865       75.69746       33.55674
N         60.13955       73.47775       36.26073
C         61.18480       73.78213       37.25097
C         62.19474       74.83701       36.76217
O         63.33641       74.45530       36.54121
C         60.58807       74.07674       38.65619
C         61.66670       74.39543       39.72633
C         59.71374       72.89854       39.13132
C         62.69586       73.28756       39.97923
H         60.14238       72.52284       35.86976
H         61.77156       72.84185       37.36114
H         59.93656       74.97142       38.57930
H         61.14938       74.60298       40.68470
H         62.21568       75.31506       39.43538
H         59.25249       73.12865       40.11466
H         58.90014       72.69222       38.41620
H         60.30295       71.96331       39.21979
H         62.21118       72.35926       40.34280
H         63.28133       73.06532       39.06535
H         63.40903       73.62431       40.75987
N         61.88825       76.15857       36.57390
C         62.85587       77.12683       36.07429
C         63.83927       77.53389       37.16482
O         65.01864       77.28075       36.96126
C         62.17102       78.32900       35.38025
C         61.43439       77.90391       34.13596
O         62.03625       77.37060       33.21725
O         60.11505       78.13584       34.01263
H         60.95631       76.51545       36.78398
H         63.44657       76.64570       35.25941
H         62.94779       79.06218       35.07137
H         61.45671       78.83857       36.04851
N         63.50911       78.14285       38.34653
C         62.16017       78.50938       38.77776
C         62.13049       79.12174       40.17461
O         63.18423       79.22046       40.78795
H         64.30121       78.33751       38.97685
H         61.54784       77.59305       38.79518
H         61.75465       79.25751       38.08469
N         60.99618       79.55744       40.80998
C         59.60120       79.59222       40.35343
C         59.01308       78.20457       39.99370
O         59.21735       77.93649       38.63773
C         59.35881       80.64104       39.24707
C         59.81578       82.00742       39.67246
O         59.27714       82.59402       40.75864
O         60.67238       82.59511       39.03160
H         61.13412       79.91551       41.76931
H         59.00078       79.93857       41.22433
H         58.27084       80.68899       39.02260
H         59.87776       80.35658       38.31160
N         59.61258       77.12789       40.78567
C         59.43963       77.20322       42.24378
C         60.79706       77.12048       42.87625
O         61.58272       76.28597       42.45483
H         59.25706       76.20740       40.44371
H         58.87264       76.31999       42.58556
H         58.87486       78.09635       42.58565
N         61.16734       77.94912       43.89150
C         62.51883       77.92223       44.44607
C         62.88422       76.56114       45.06017
O         64.05185       76.34187       45.33700
C         62.69123       79.08307       45.45255
C         64.15988       79.43949       45.74181
C         64.29872       80.66638       46.61550
N         65.52416       81.18709       46.85343
O         63.31289       81.20674       47.09772
H         60.48364       78.64025       44.23933
H         63.19876       78.10966       43.58467
H         62.13142       78.86237       46.38928
H         62.24797       79.99290       44.98928
H         64.65096       79.66503       44.76991
H         64.69319       78.59565       46.22442
H         66.36607       80.75955       46.44082
H         65.63021       82.03167       47.43516
N         61.93396       75.60203       45.28916
C         62.22529       74.26673       45.81675
C         61.66092       74.08635       47.21511
O         61.89128       73.02632       47.79128
C         61.70569       73.15631       44.84796
C         62.51867       73.13704       43.54988
C         60.20177       73.27378       44.52472
H         60.94865       75.82651       45.11216
H         63.32121       74.12692       45.93524
H         61.87002       72.16732       45.33103
H         62.41835       74.08951       43.00234
H         63.59345       72.97154       43.77396
H         62.17323       72.31143       42.89186
H         59.59412       73.25220       45.45318
H         59.97383       74.20477       43.96521
H         59.88143       72.42418       43.88394
N         60.93104       75.05011       47.84032
C         60.43608       74.91613       49.19783
C         58.95619       74.61736       49.18192
O         58.55681       73.63722       49.79079
C         60.70340       76.20452       50.00876
C         62.17300       76.51561       50.14173
N         62.68054       77.67948       49.67105
O         62.91067       75.71524       50.69765
H         60.69720       75.92432       47.34508
H         60.94059       74.07497       49.72921
H         60.28562       76.08762       51.03312
H         60.17906       77.06006       49.52951
H         62.07653       78.37258       49.20532
H         63.68358       77.89320       49.77594
N         58.07735       75.44942       48.54764
C         56.63577       75.33624       48.72604
C         55.86609       75.21678       47.41659
O         56.15266       75.95487       46.48570
C         56.13064       76.62922       49.40061
C         56.92112       77.07602       50.60492
C         57.53878       78.33874       50.58344
C         57.03583       76.27518       51.75232
C         58.25073       78.79916       51.68929
C         57.75294       76.73974       52.86222
C         58.35861       78.00653       52.83365
O         59.04092       78.47524       53.89729
H         58.43863       76.25543       48.01803
H         56.37905       74.48907       49.39877
H         55.07786       76.49103       49.70968
H         56.15680       77.44797       48.64703
H         57.46343       78.97577       49.71055
H         56.56762       75.29975       51.79104
H         58.71235       79.77797       51.65578
H         57.83258       76.11905       53.74532
H         59.13007       77.96905       54.71656
N         54.70834       74.48743       47.39319
C         53.63486       74.67788       46.41297
C         53.92730       74.25435       44.98249
O         53.04415       74.45398       44.15782
C         53.08841       76.12746       46.49472
C         52.45120       76.39392       47.86928
C         51.95041       77.80270       47.97922
O         50.76518       78.02015       48.17336
O         52.81157       78.83424       47.88909
H         54.48585       73.89340       48.20582
H         52.78330       74.02300       46.70672
H         52.29049       76.27589       45.73528
H         53.89209       76.86292       46.28295
H         53.17976       76.22339       48.67988
H         51.60805       75.68340       48.01935
N         55.03546       73.54635       44.61960
C         55.10819       72.88819       43.31402
C         54.58968       71.45978       43.40426
O         54.54525       70.79526       42.37737
C         56.53686       72.91440       42.74140
C         57.09763       74.31541       42.47129
C         56.33293       75.07950       41.41955
O         55.07352       75.49606       41.64863
O         56.86737       75.35756       40.35892
H         55.72615       73.28701       45.33966
H         54.43157       73.37721       42.58443
H         56.55951       72.35694       41.77793
H         57.21396       72.39211       43.45176
H         58.13911       74.16927       42.10942
H         57.13550       74.90817       43.40939
N         54.13458       70.92485       44.57500
C         53.57993       69.59209       44.64097
H         52.69019       69.52285       43.97882
H         54.34011       68.84740       44.32653
H         53.26269       69.36761       45.68159
H         54.15453       71.46708       45.44967
Ca        57.45663       76.78869       37.72699
O         55.58369       78.26398       39.92357
H         55.35684       79.22084       39.80918
H         54.73554       77.78459       39.74660
O         54.91687       78.60360       36.69612
H         54.93650       79.59190       36.75156
H         54.10518       78.34168       37.19870
O         54.14193       75.41411       38.05732
H         54.51189       74.94570       38.84672
H         53.72282       74.69706       37.51845
O         58.13268       79.31481       36.00302
H         58.51872       78.40508       35.95686
H         57.37027       79.28846       35.37259

Ca 1.0



