%chk=apoCaM-CA-Ng.loop4.water6.frame889.chk
%nprocshared=20
%mem=10GB
%nosave
#b3lyp/svp scf=(tight,noincore,xqc) Test 
#IOP(5/87=12) Density=Current Pop=(MK,readradii) iop(6/33=2) iop(6/42=6)

apoCaM-CA-Ng.loop4.water6.frame889 

   -3  1 
C         31.73129        6.41882        3.52743
C         32.56762        6.41351        2.28370
O         32.38635        5.54177        1.44644
H         31.01210        5.57195        3.52284
H         32.38809        6.32507        4.41755
H         31.16300        7.37062        3.58961
N         33.50704        7.38332        2.09369
C         34.37467        7.47083        0.92424
C         33.52597        7.61298       -0.33416
O         33.63281        6.80244       -1.24411
C         35.35291        6.26539        0.90715
C         36.43368        6.34484       -0.14115
O         36.51166        7.29290       -0.90688
O         37.34294        5.35487       -0.22164
H         33.60883        8.11294        2.81630
H         34.99063        8.39211        1.02993
H         34.79348        5.31730        0.76478
H         35.86249        6.21627        1.89463
N         32.60844        8.61883       -0.41538
C         31.69843        8.77564       -1.54851
C         32.48869        9.24281       -2.77402
O         33.13773       10.27296       -2.65590
C         30.55274        9.78206       -1.22080
C         29.71015        9.24487       -0.02731
C         29.65693        9.99297       -2.46339
C         28.59112       10.18384        0.42177
H         32.52878        9.26236        0.38634
H         31.19504        7.80745       -1.68599
H         31.00069       10.76303       -0.94585
H         30.36295        9.08705        0.85551
H         29.26279        8.26191       -0.29467
H         30.24325       10.38965       -3.31801
H         29.18532        9.03593       -2.77360
H         28.86728       10.74446       -2.27063
H         27.82884       10.31787       -0.37122
H         28.07691        9.74202        1.30121
H         29.01011       11.17038        0.71020
N         32.51861        8.59682       -3.98299
C         31.80307        7.36964       -4.33121
C         32.74847        6.18464       -4.39489
O         32.26448        5.06237       -4.45589
C         30.93659        7.53801       -5.59844
C         31.70598        7.83972       -6.85809
O         32.39086        8.99156       -6.98764
O         31.66575        7.06068       -7.79676
H         33.13629        9.00198       -4.70118
H         31.08459        7.10309       -3.54707
H         30.19953        8.35315       -5.43091
H         30.36209        6.59622       -5.74770
N         34.09979        6.34282       -4.28291
C         35.00499        5.24137       -4.03959
C         35.04941        4.18116       -5.10686
O         34.40502        4.27574       -6.14227
H         34.51844        7.28220       -4.25461
H         34.70163        4.75571       -3.08696
H         36.03519        5.63905       -3.90509
N         35.83745        3.10327       -4.86131
C         36.02732        1.97708       -5.76286
C         34.76521        1.17125       -6.06123
O         34.85776        0.30091       -6.91509
C         37.14005        1.04223       -5.20720
C         36.83874        0.41537       -3.85853
O         36.62379        1.17076       -2.76452
O         36.84434       -0.79615       -3.73725
H         36.37733        3.13092       -3.98629
H         36.38983        2.38829       -6.73091
H         38.07584        1.63091       -5.10257
H         37.33697        0.23376       -5.94609
N         33.56483        1.36246       -5.43070
C         32.40818        0.52018       -5.72722
C         32.61220       -0.93265       -5.30927
O         31.79445       -1.76835       -5.66427
H         33.45486        2.10377       -4.72511
H         32.20938        0.57348       -6.81983
H         31.50699        0.90299       -5.20020
N         33.66290       -1.29200       -4.51791
C         33.97390       -2.63622       -4.04753
C         32.87044       -3.22355       -3.19071
O         32.63672       -4.42360       -3.23677
C         34.45833       -3.57278       -5.17821
C         35.66631       -2.96573       -5.91116
C         36.31877       -3.87502       -6.91586
N         37.39158       -3.42911       -7.61040
O         35.90498       -5.01025       -7.09943
H         34.29001       -0.55679       -4.17164
H         34.83242       -2.52623       -3.34763
H         33.63971       -3.77604       -5.90193
H         34.77466       -4.53415       -4.71644
H         36.44667       -2.70984       -5.16997
H         35.34273       -2.04686       -6.43442
H         37.75042       -2.47320       -7.46277
H         37.86752       -4.03628       -8.29307
N         32.19044       -2.41977       -2.32845
C         31.25273       -2.91250       -1.32633
C         31.63786       -2.43113        0.07484
O         30.96303       -2.82624        1.01646
C         29.79758       -2.48536       -1.67792
C         29.62156       -0.95851       -1.75872
C         29.34317       -3.13269       -2.99426
H         32.35147       -1.40478       -2.38639
H         31.27387       -4.02459       -1.29510
H         29.12186       -2.86564       -0.87935
H         28.55787       -0.70983       -1.96100
H         29.90685       -0.47864       -0.79997
H         30.23424       -0.52412       -2.57645
H         29.41575       -4.23895       -2.92148
H         28.28411       -2.87201       -3.20573
H         29.96748       -2.78892       -3.84510
N         32.65542       -1.53801        0.29149
C         32.92962       -0.92756        1.58630
C         34.42112       -1.02581        1.92240
O         35.20527       -1.40457        1.06096
C         32.35886        0.50307        1.48751
C         32.37820        1.34038        2.73119
N         32.84497        2.60847        2.68364
O         31.90181        0.90629        3.76885
H         33.20163       -1.16853       -0.49638
H         32.37144       -1.46810        2.38217
H         31.28367        0.39281        1.22223
H         32.84952        1.04402        0.64846
H         33.21849        3.00230        1.80652
H         32.80872        3.20830        3.51886
N         34.86822       -0.81371        3.19569
C         36.25093       -1.10668        3.60292
C         36.36774       -1.37990        5.10009
O         35.38736       -1.23051        5.81832
C         37.24433        0.00656        3.17558
C         37.02499        1.32160        3.89551
C         35.92815        2.13115        3.57546
C         37.92666        1.75728        4.88530
C         35.72837        3.35080        4.23234
C         37.71882        2.97143        5.54992
C         36.61908        3.77125        5.22637
O         36.42894        4.94031        5.87067
H         34.16129       -0.58527        3.90951
H         36.55161       -2.06167        3.11677
H         37.22216        0.17232        2.07756
H         38.26800       -0.35615        3.40602
H         35.24340        1.81810        2.80404
H         38.78475        1.15405        5.15316
H         34.88694        3.97616        3.97171
H         38.41399        3.29193        6.31552
H         35.67710        5.51940        5.67827
N         37.55675       -1.79375        5.64069
C         37.73208       -2.03067        7.06730
C         38.75316       -1.05547        7.63413
O         39.93590       -1.24754        7.38498
C         38.19029       -3.47269        7.36495
C         37.10964       -4.51621        7.07073
C         37.61288       -5.89303        7.40201
O         38.56811       -6.36010        6.80186
O         37.01590       -6.61727        8.36801
H         38.37549       -1.92281        5.02723
H         36.77160       -1.90267        7.57340
H         38.43548       -3.55050        8.44900
H         39.11313       -3.69529        6.78317
H         36.80886       -4.48158        6.00293
H         36.21992       -4.29382        7.70073
N         38.41668        0.03465        8.38816
C         37.05078        0.52287        8.58080
C         36.14166       -0.41019        9.35872
O         36.60655       -1.35968        9.97577
C         37.05946        1.91578        9.23774
C         37.56875        1.91253       10.69244
C         37.59143        3.31864       11.20370
O         36.45392        4.03682       11.21397
O         38.64042        3.83163       11.55885
H         39.19653        0.62036        8.72589
H         36.62254        0.64383        7.56082
H         36.02967        2.33481        9.21815
H         37.70405        2.58086        8.62414
H         38.59159        1.48294       10.74996
H         36.89774        1.30442       11.33630
N         34.79629       -0.20531        9.31356
C         33.85105       -1.08473        9.96117
H         32.81540       -0.74005        9.75117
H         33.96321       -2.11658        9.56419
H         34.01704       -1.08156       11.05769
H         34.42404        0.58590        8.76577
Ca        36.47655        6.25517       11.58874
O         34.46667        5.39368       13.63099
H         33.99409        6.22853       13.38509
H         33.84541        4.66918       13.36777
O         38.48875        6.35074       13.81312
H         38.29009        5.38085       13.79534
H         39.03187        6.50723       13.00002
O         37.70168        5.31438        8.67780
H         37.78695        6.00541        7.97497
H         38.62410        4.97918        8.80907
O         36.39965        8.96725       12.58106
H         36.19907        9.86468       12.21544
H         35.72569        8.82801       13.29298
O         33.90474        4.61289        9.82675
H         33.84764        4.34717        8.87476
H         33.87851        3.75722       10.32468
O         38.78153        8.00733       10.28277
H         39.03607        8.36129       11.17172
H         38.06340        8.61372        9.97121

Ca 1.0



