%chk=apoCaM-CA-Ng.loop4.water2.frame462.chk
%nprocshared=20
%mem=10GB
%nosave
#b3lyp/svp scf=(tight,noincore,xqc) Test 
#IOP(5/87=12) Density=Current Pop=(MK,readradii) iop(6/33=2) iop(6/42=6)

apoCaM-CA-Ng.loop4.water2.frame462 

   -3  1 
C         37.64631       48.72704       95.80028
C         36.98828       47.57322       96.54661
O         36.56371       46.60956       95.62594
H         38.50036       48.33323       95.20940
H         36.92219       49.19869       95.10191
H         38.02583       49.48291       96.51670
N         35.83658       48.00040       97.35983
C         35.99788       47.98780       98.83257
C         37.13148       47.09397       99.35340
O         37.10929       45.90041       99.12580
C         34.63354       47.66010       99.50039
C         33.83557       46.50743       98.91154
O         34.32383       45.25871       98.79916
O         32.71490       46.72669       98.47912
H         35.38481       48.88405       97.02331
H         36.25346       49.01980       99.15998
H         33.99073       48.56205       99.38992
H         34.78199       47.50260      100.58908
N         38.17510       47.65631      100.04487
C         39.36595       46.98439      100.58517
C         39.06801       46.16423      101.84149
O         39.58071       46.51969      102.89456
C         40.15755       46.18526       99.50835
C         41.50004       45.61549      100.04899
C         40.40516       47.03375       98.24858
C         42.52857       46.66490      100.49439
H         38.16000       48.67998      100.17113
H         40.03408       47.80796      100.92106
H         39.54792       45.31426       99.19722
H         41.96749       45.00409       99.24838
H         41.29942       44.93755      100.90579
H         39.44587       47.33035       97.78382
H         40.96790       47.95951       98.48428
H         40.97136       46.44631       97.49698
H         42.80900       47.33611       99.65727
H         42.15183       47.27189      101.34188
H         43.45209       46.15164      100.83442
N         38.25394       45.07226      101.82711
C         37.90718       44.32321      103.02669
C         39.05395       43.42513      103.50500
O         39.43807       43.61502      104.65076
C         36.55778       43.60014      102.85197
C         35.39903       44.54988      102.65214
O         35.57915       45.88617      102.64149
O         34.27403       44.10057      102.50585
H         37.80810       44.78621      100.95317
H         37.69796       45.04569      103.85155
H         36.34591       42.99987      103.76379
H         36.58784       42.94568      101.97390
N         39.71369       42.46895      102.77079
C         39.52178       42.11172      101.37210
C         38.33309       41.19725      101.12626
O         37.62567       40.88307      102.07220
H         40.50962       42.00339      103.23573
H         40.41301       41.53266      101.04739
H         39.49970       43.03564      100.76961
N         38.04471       40.66734       99.89452
C         38.89409       40.78055       98.70501
C         39.15163       42.21785       98.28705
O         38.35627       43.08197       98.62586
C         38.31535       39.94921       97.53025
C         36.94641       40.40156       97.09519
O         36.77732       41.52012       96.63688
O         35.90159       39.55693       97.18522
H         37.20271       40.07376       99.82759
H         39.86961       40.33489       98.99397
H         38.25474       38.88805       97.85558
H         38.98001       39.98453       96.64390
N         40.28744       42.59226       97.62656
C         41.31512       41.68800       97.12652
C         42.56486       41.74055       97.96032
O         42.58316       42.39356       98.99492
H         40.45055       43.59993       97.48064
H         41.53983       41.96864       96.07509
H         41.00111       40.63112       97.11850
N         43.66805       41.05455       97.54694
C         44.92698       41.04547       98.28221
C         45.92826       42.02126       97.68042
O         46.94112       42.26538       98.32056
C         45.43446       39.60044       98.52364
C         45.59597       38.70900       97.27829
C         46.65768       39.18397       96.33267
N         47.95267       39.22137       96.71556
O         46.35184       39.50738       95.19690
H         43.62397       40.57838       96.63373
H         44.75616       41.46878       99.29720
H         44.68021       39.09568       99.16644
H         46.38476       39.63004       99.09976
H         44.62299       38.62409       96.75202
H         45.86944       37.68174       97.60317
H         48.23453       38.93216       97.66281
H         48.67904       39.51648       96.05238
N         45.64943       42.72078       96.53711
C         46.36954       43.93480       96.15239
C         47.10062       43.82711       94.82600
O         47.72623       44.80906       94.44443
C         45.37481       45.13861       96.13684
C         44.70556       45.32094       97.50906
C         44.29062       45.01891       95.04599
H         44.82731       42.46740       95.97591
H         47.15313       44.16826       96.90645
H         45.95776       46.06244       95.92561
H         44.04886       46.21679       97.50212
H         44.08202       44.43920       97.76816
H         45.47409       45.45806       98.29850
H         43.65720       45.93041       95.04754
H         44.75051       44.92927       94.03959
H         43.62344       44.14827       95.21198
N         47.10217       42.69007       94.07674
C         47.82118       42.57432       92.81430
C         46.89537       42.22911       91.65427
O         47.40228       42.04816       90.55868
C         48.94386       41.52589       92.95859
C         49.93187       41.90580       94.04020
N         50.62679       43.06633       93.97956
O         50.11362       41.15122       94.98115
H         46.59984       41.85884       94.41672
H         48.30426       43.53534       92.53520
H         49.50441       41.44434       92.00228
H         48.49677       40.53187       93.18450
H         50.50365       43.72199       93.19564
H         51.29421       43.31224       94.72614
N         45.53236       42.17314       91.79291
C         44.65108       41.86039       90.66294
C         43.18371       42.16099       90.94857
O         42.81844       42.33156       92.09535
C         44.83872       40.38319       90.22472
C         44.74584       39.39516       91.38057
C         45.87864       38.63984       91.73968
C         43.55688       39.21120       92.11216
C         45.82473       37.73262       92.80223
C         43.50585       38.30533       93.17631
C         44.63708       37.56452       93.52649
O         44.57332       36.70101       94.56036
H         45.11402       42.39960       92.70307
H         44.91683       42.54692       89.82905
H         45.84525       40.29351       89.76671
H         44.11390       40.11151       89.42789
H         46.81126       38.75517       91.20191
H         42.66325       39.76066       91.87269
H         46.70899       37.16609       93.06610
H         42.58411       38.18097       93.73137
H         45.33802       36.17998       94.84439
N         42.30149       42.22538       89.89692
C         40.85366       42.47363       89.93945
C         40.44167       43.87624       90.37675
O         39.84705       44.57645       89.56847
C         40.09272       41.40719       90.74577
C         40.21797       40.01856       90.10103
C         39.42923       38.97018       90.83755
O         38.71934       39.27602       91.94239
O         39.42351       37.82297       90.42225
H         42.69000       42.05995       88.95659
H         40.48619       42.38835       88.88929
H         39.01244       41.67825       90.74737
H         40.44490       41.38757       91.79896
H         41.28200       39.71031       90.06376
H         39.83543       40.06923       89.05796
N         40.64653       44.33471       91.64188
C         40.13501       45.60722       92.13589
C         40.60104       46.75257       91.26084
O         39.76572       47.50451       90.77632
C         40.53516       45.85431       93.61449
C         40.24180       44.70109       94.60433
C         38.82637       44.19782       94.59023
O         38.36362       43.66639       93.59332
O         38.08697       44.25565       95.71008
H         41.13264       43.73635       92.30074
H         39.02370       45.57672       92.09755
H         39.99984       46.76566       93.95966
H         41.62496       46.05913       93.67813
H         40.48931       45.06633       95.62121
H         40.90941       43.83741       94.41575
N         41.91929       46.91242       90.96576
C         42.37985       47.95671       90.07676
H         43.47602       47.86957       89.92389
H         41.87923       47.86006       89.08832
H         42.15142       48.95302       90.50964
H         42.61135       46.25099       91.34946
Ca        35.70124       45.09191       97.05450
O         33.88357       43.21427       95.47053
H         34.17156       43.15837       94.52489
H         33.48350       44.11634       95.55469
O         35.40122       42.48149       99.45819
H         35.03101       41.99443      100.23652
H         35.73246       43.33528       99.83350

Ca 1.0



