%chk=apoCaM-CA-Ng.loop1.water2.frame1172.chk
%nprocshared=20
%mem=10GB
%nosave
#b3lyp/svp scf=(tight,noincore,xqc) Test 
#IOP(5/87=12) Density=Current Pop=(MK,readradii) iop(6/33=2) iop(6/42=6)

apoCaM-CA-Ng.loop1.water2.frame1172 

   0  1 
C        118.36432       39.52679       16.63090
C        118.14514       39.74217       18.10060
O        117.07624       39.43490       18.60577
H        119.26555       38.89696       16.47393
H        117.49024       39.02660       16.16408
H        118.52263       40.50838       16.13454
N        119.14700       40.26831       18.85441
C        119.05487       40.52021       20.29302
C        118.27727       41.79184       20.64380
O        118.37140       42.22439       21.78468
C        120.48082       40.56487       20.90287
C        121.38301       41.66683       20.40321
O        122.64021       41.74680       20.87817
O        121.00157       42.48331       19.57923
H        120.04824       40.43269       18.37996
H        118.56835       39.65444       20.79514
H        120.97497       39.59152       20.69327
H        120.39936       40.66233       22.00772
N        117.49192       42.44582       19.73761
C        116.82931       43.71782       20.01958
C        115.99823       43.65789       21.30054
O        116.27968       44.46808       22.17301
C        116.02677       44.25264       18.80318
C        116.93319       44.45359       17.56856
C        116.18124       45.06264       16.38107
C        117.11311       45.17573       15.16292
N        116.41002       45.72924       14.00723
H        117.36385       42.03500       18.80899
H        117.62762       44.47543       20.19685
H        115.59509       45.23987       19.08147
H        115.18811       43.57782       18.53868
H        117.34548       43.47981       17.23649
H        117.78202       45.12030       17.83660
H        115.80188       46.07078       16.65766
H        115.31872       44.41249       16.11832
H        117.50124       44.16592       14.89899
H        117.98052       45.82691       15.41303
H        117.07282       45.78544       13.20011
H        115.61040       45.10870       13.74361
H        116.05826       46.68930       14.22567
N        115.02128       42.74228       21.57605
C        114.54579       41.67030       20.70743
C        114.91385       40.30462       21.25427
O        115.47744       40.21485       22.33353
C        113.02973       41.82628       20.48070
C        112.21111       42.17533       21.71125
O        112.02911       41.37519       22.78888
O        111.67334       43.27135       21.73372
H        114.59568       42.79677       22.51542
H        115.04270       41.70985       19.72060
H        112.61924       40.94423       19.96237
H        112.92028       42.68880       19.78561
N        114.72459       39.19031       20.48620
C        115.21659       37.87803       20.88194
C        114.31669       37.18743       21.87203
O        113.20343       37.63399       22.07694
H        114.33313       39.29785       19.53766
H        116.25397       37.97755       21.26472
H        115.25057       37.21242       19.99235
N        114.73368       36.05657       22.51099
C        113.85920       35.24809       23.36556
C        113.97338       33.77022       22.98655
O        114.94157       33.40972       22.33166
C        114.18896       35.50216       24.85604
C        113.87906       36.93754       25.16778
O        112.63943       37.40432       24.91075
O        114.76000       37.69498       25.53529
H        115.71411       35.76233       22.38533
H        112.81206       35.55865       23.19462
H        115.25734       35.27081       25.05959
H        113.57828       34.87546       25.52836
N        113.04519       32.82546       23.33432
C        111.79232       33.09168       24.02459
C        110.83518       33.91270       23.19057
O        111.09350       34.15087       22.02046
H        113.23445       31.84508       23.07335
H        111.98873       33.59313       24.98584
H        111.28377       32.13204       24.26042
N        109.69134       34.38571       23.75643
C        108.70871       35.19747       23.03630
C        109.29923       36.48088       22.43520
O        110.30743       36.98321       22.90771
C        107.46441       35.51363       23.90948
C        107.80086       36.19488       25.24553
O        106.76715       34.32189       24.17148
H        109.51970       34.13149       24.73860
H        108.35673       34.58565       22.17490
H        106.81837       36.20545       23.31640
H        105.79736       34.52455       24.09319
H        108.36848       35.52178       25.92193
H        108.39225       37.11406       25.07722
H        106.86395       36.46214       25.77734
N        108.72357       36.98931       21.30170
C        109.18333       38.11181       20.47608
C        109.09498       39.46924       21.16632
O        109.77493       39.67858       22.15992
C        110.63886       37.94256       19.93639
C        111.00708       36.52950       19.43483
C        110.92638       38.98750       18.83942
C        110.15120       35.99946       18.28954
H        107.89896       36.48784       20.93604
H        108.51619       38.12748       19.58499
H        111.32901       38.14985       20.77164
H        110.93205       35.82141       20.27663
H        112.07329       36.53548       19.11371
H        111.98249       38.92384       18.50348
H        110.25827       38.84894       17.96556
H        110.75191       40.00965       19.21764
H        110.22997       36.64855       17.39521
H        110.51499       34.98759       18.01227
H        109.09128       35.91824       18.60428
N        108.35737       40.47672       20.60932
C        108.48520       41.88139       21.00092
C        107.34733       42.33098       21.89570
O        106.53918       43.16177       21.50655
C        108.75761       42.79739       19.76553
C        107.66738       42.81814       18.68272
O        109.96344       42.40285       19.16059
H        107.76473       40.25560       19.79678
H        109.38358       42.01678       21.63771
H        108.85132       43.84259       20.15173
H        110.57071       43.18834       19.15101
H        107.97416       43.51757       17.87427
H        107.52980       41.82036       18.22028
H        106.69595       43.17378       19.07577
N        107.30538       41.88115       23.18359
C        106.33707       42.36405       24.16543
C        106.90490       42.33592       25.57857
O        107.59276       41.38485       25.91847
C        105.03549       41.53794       24.09285
C        105.24205       40.06289       24.47130
O        104.08699       42.11033       24.95744
H        108.04810       41.23597       23.49279
H        106.08048       43.42216       23.93087
H        104.66770       41.59261       23.04127
H        103.19076       41.92228       24.57609
H        104.28345       39.51355       24.37771
H        105.99269       39.58668       23.80614
H        105.57957       39.96470       25.52483
N        106.57259       43.31273       26.48037
C        106.89335       43.27223       27.91178
C        108.28959       42.73370       28.15724
O        108.46578       41.68008       28.75412
C        105.77376       42.54904       28.68906
C        104.45651       43.34146       28.58411
C        103.34401       42.75374       29.45531
C        102.10397       43.66148       29.41316
N        101.04439       43.15060       30.28032
H        105.93591       44.06088       26.16679
H        106.91737       44.31425       28.30172
H        106.06461       42.51194       29.76213
H        105.64191       41.50856       28.31911
H        104.10983       43.38040       27.52895
H        104.65047       44.38061       28.93195
H        103.70102       42.68884       30.50613
H        103.08477       41.73313       29.09838
H        101.72552       43.73688       28.36924
H        102.38516       44.68332       29.75555
H        101.38632       43.09226       31.26723
H        100.23036       43.80630       30.24560
H        100.73668       42.20635       29.95397
N        109.33268       43.43741       27.64965
C        110.71814       43.00740       27.65675
C        111.18283       42.69959       26.23528
O        111.67660       41.59626       26.05344
C        111.62917       44.05085       28.33356
C        111.34315       44.18062       29.83555
C        112.23435       45.21449       30.46443
O        113.44841       45.08637       30.43302
O        111.69473       46.28673       31.07468
H        109.10913       44.33554       27.21310
H        110.83410       42.06174       28.23636
H        111.51366       45.04066       27.85299
H        112.68788       43.72719       28.21452
H        111.52202       43.20306       30.33517
H        110.28276       44.47035       29.99303
N        111.10425       43.54301       25.15884
C        110.48342       44.84918       25.09698
H        109.38605       44.76787       25.21709
H        110.93523       45.55077       25.81995
H        110.62448       45.27583       24.08151
H        111.50651       43.21066       24.27626
Ca       112.30455       39.41120       23.89778
O        109.89662       38.98747       26.08779
H        109.62004       39.88191       26.40573
H        109.66193       38.38023       26.83358
O        114.51868       40.75834       25.32654
H        114.85332       40.12221       24.64918
H        114.18327       40.17656       26.05322

Ca 1.0



