%chk=apoCaM-CA-Ng.loop3.water6.frame1120.chk
%nprocshared=20
%mem=10GB
%nosave
#b3lyp/svp scf=(tight,noincore,xqc) Test 
#IOP(5/87=12) Density=Current Pop=(MK,readradii) iop(6/33=2) iop(6/42=6)

apoCaM-CA-Ng.loop3.water6.frame1120 

   0  1 
C         73.58312       96.11702       68.13629
C         73.61842       96.35767       69.61856
O         72.69761       96.97104       70.13410
H         74.48140       95.56157       67.79288
H         72.68302       95.51861       67.87966
H         73.53865       97.08669       67.59848
N         74.64506       95.87617       70.37352
C         74.72825       96.02181       71.82471
C         76.02064       96.70688       72.26802
O         76.25172       96.78809       73.46647
C         74.56842       94.62777       72.46554
C         75.64119       93.65197       72.06321
O         75.34724       92.63876       71.44942
O         76.92579       93.87626       72.39648
H         75.38872       95.33775       69.90240
H         73.88740       96.63924       72.21014
H         73.57653       94.22665       72.15724
H         74.56278       94.71725       73.57292
N         76.89526       97.24696       71.36738
C         78.16043       97.88877       71.71463
C         77.96110       99.04189       72.67384
O         78.59291       99.09950       73.72057
C         79.20748       96.86086       72.18984
C         79.49184       95.85344       71.06684
C         80.69669       94.96313       71.37347
C         80.97400       94.03496       70.18213
N         82.20054       93.26739       70.38314
H         76.66046       97.23404       70.36516
H         78.57203       98.34729       70.78697
H         78.88125       96.33677       73.11511
H         80.14843       97.41174       72.41158
H         79.72720       96.42018       70.13911
H         78.59041       95.23204       70.87845
H         80.51676       94.36375       72.29269
H         81.58346       95.61431       71.53729
H         81.08515       94.64278       69.25579
H         80.11387       93.34234       70.04336
H         82.12492       92.68015       71.24437
H         82.35140       92.64713       69.55490
H         83.01563       93.91828       70.46595
N         77.07679      100.01654       72.34076
C         76.82595      101.20429       73.14590
C         75.43868      101.12981       73.72452
O         74.63618      102.03737       73.55084
C         77.13134      102.47916       72.31971
C         76.46967      102.58803       70.96355
O         75.60589      101.80912       70.59264
O         76.97938      103.47072       70.08719
H         76.54165       99.88205       71.47324
H         77.50326      101.22812       74.02811
H         78.22235      102.44065       72.11224
H         76.93763      103.39996       72.91072
N         75.10295      100.03613       74.46226
C         73.81336       99.90389       75.10057
C         73.68178       98.55166       75.77900
O         74.48997       98.28351       76.65703
H         75.79331       99.27615       74.56666
H         73.03721      100.09836       74.35064
H         73.71027      100.69618       75.87327
N         72.69487       97.64434       75.50528
C         71.62856       97.79954       74.51600
C         71.41565       96.51616       73.71875
O         71.90589       95.47205       74.12441
C         70.34324       98.21544       75.26638
C         70.42554       99.65995       75.69491
N         70.39860      100.00956       77.00004
O         70.50691      100.53109       74.84068
H         72.65689       96.80535       76.10712
H         71.89497       98.54484       73.75413
H         70.19211       97.53469       76.13273
H         69.43606       98.12575       74.64926
H         70.32753       99.29625       77.73864
H         70.45119      101.00339       77.27038
N         70.70695       96.49538       72.54726
C         70.16195       97.68835       71.90863
C         69.36015       97.35389       70.68101
O         68.41397       96.58689       70.80172
H         70.58342       95.58492       72.07535
H         70.98432       98.39153       71.65773
H         69.45826       98.20420       72.57865
N         69.64841       97.91999       69.47063
C         68.81737       97.69171       68.28685
C         69.43632       98.28438       67.01850
O         70.37932       99.06227       67.08866
C         67.41272       98.31923       68.53677
C         66.37097       98.04887       67.48103
C         65.76637       99.11374       66.79160
C         65.96510       96.73287       67.20360
C         64.77263       98.86567       65.84049
C         64.97441       96.48668       66.24844
C         64.37248       97.55387       65.56531
O         63.41225       97.33167       64.64569
H         70.47541       98.53259       69.40832
H         68.75499       96.59057       68.14040
H         67.55196       99.41548       68.66956
H         66.97702       97.94035       69.48076
H         66.05621      100.13724       66.99490
H         66.41339       95.89920       67.72913
H         64.31110       99.69492       65.31933
H         64.67294       95.46738       66.04374
H         63.10674       96.43990       64.42663
N         68.94926       97.91477       65.80109
C         69.44847       98.42963       64.52860
C         69.20067       99.92724       64.42174
O         68.05026      100.33948       64.48432
C         68.80737       97.64821       63.32727
C         67.25831       97.79835       63.23671
C         69.48027       98.06157       62.00493
C         66.60006       96.83880       62.24572
H         68.21841       97.19245       65.78838
H         70.54311       98.22912       64.49050
H         69.03720       96.57269       63.49983
H         66.97356       98.83276       62.95623
H         66.80324       97.57393       64.21674
H         70.57947       97.92090       62.07408
H         69.12557       97.43881       61.15987
H         69.27126       99.12749       61.77182
H         66.92719       97.03491       61.20603
H         66.83193       95.78768       62.51925
H         65.49784       96.97535       62.28520
N         70.23223      100.80980       64.26424
C         69.98579      102.23805       64.06237
C         71.22374      103.10737       64.26753
O         72.30526      102.60483       64.54023
C         69.37320      102.46403       62.66134
O         70.28006      102.06018       61.67206
H         71.19881      100.45066       64.27927
H         69.26731      102.57897       64.84086
H         69.11616      103.53435       62.51514
H         68.43267      101.88065       62.56124
H         69.82034      102.19968       60.80332
N         71.08795      104.46431       64.19534
C         72.11598      105.44974       64.49986
C         73.34438      105.33914       63.61563
O         74.45346      105.34707       64.13189
C         72.45706      105.40343       65.99471
H         70.16318      104.84975       63.95404
H         71.68147      106.45413       64.30096
H         71.54029      105.56375       66.59982
H         72.87621      104.41660       66.25402
H         73.19592      106.18972       66.25901
N         73.22122      105.27126       62.25800
C         74.35513      105.31539       61.33882
C         75.42297      104.30660       61.72722
O         76.55035      104.69640       62.00575
C         74.90787      106.74820       61.28183
H         72.27696      105.20298       61.84917
H         73.99340      105.07793       60.31368
H         75.72884      106.81269       60.53564
H         74.10255      107.44767       60.97140
H         75.29498      107.07105       62.27125
N         75.12151      102.98174       61.78755
C         76.07465      101.97333       62.23119
C         76.39740      101.05928       61.06952
O         77.55786      100.97026       60.69298
C         75.48510      101.21512       63.43736
C         76.51271      100.31397       64.16339
C         76.73600      100.79714       65.57324
O         76.45788      100.07807       66.51966
O         77.18360      102.04770       65.79960
H         74.17062      102.68077       61.52389
H         77.01742      102.45744       62.57428
H         74.60476      100.61528       63.12164
H         75.08554      101.96814       64.15429
H         77.48455      100.28436       63.62456
H         76.12181       99.27342       64.19724
N         75.40499      100.38151       60.42516
C         75.62875       99.54638       59.26334
H         76.69712       99.51125       58.96398
H         75.28480       98.51416       59.47881
H         75.04295       99.94988       58.41011
H         74.43250      100.47543       60.75267
Ca        77.13176      102.87288       67.90903
O         79.47346      104.62848       69.79500
H         79.81113      104.10463       70.56406
H         78.93848      105.35564       70.20205
O         79.53373      101.25304       68.57899
H         80.41048      101.68810       68.72798
H         79.73542      100.47348       68.00300
O         76.20926      105.90699       68.33966
H         76.41753      106.79135       68.73269
H         75.25159      105.76178       68.54457
O         77.35970      105.15971       65.62266
H         77.83786      105.45346       64.80752
H         76.66604      104.53685       65.29115
O         74.43655      103.11655       67.57963
H         73.84128      103.33227       68.34005
H         74.03772      102.31471       67.15857
O         80.02264      104.11951       66.89947
H         80.39252      104.97527       67.23329
H         80.80818      103.62946       66.54936

Ca 1.0



