%chk=apoCaM-CA-Ng.loop4.water4.frame403.chk
%nprocshared=20
%mem=10GB
%nosave
#b3lyp/svp scf=(tight,noincore,xqc) Test 
#IOP(5/87=12) Density=Current Pop=(MK,readradii) iop(6/33=2) iop(6/42=6)

apoCaM-CA-Ng.loop4.water4.frame403 

   -3  1 
C         16.55952       82.19499       11.01622
C         18.01960       81.96797       10.76619
O         18.36533       81.59746        9.65518
H         16.00611       81.24631       10.85403
H         16.37357       82.54381       12.05317
H         16.18011       82.96219       10.30860
N         18.94043       82.19465       11.74855
C         20.37850       82.01540       11.58191
C         20.91578       82.88295       10.46751
O         21.52834       82.37176        9.55627
C         20.79924       80.51472       11.56060
C         20.02141       79.50850       10.72701
O         20.02054       79.45386        9.37454
O         19.40080       78.64096       11.32184
H         18.61276       82.55111       12.65924
H         20.88498       82.41652       12.49030
H         20.66540       80.17988       12.61510
H         21.88748       80.42812       11.35073
N         20.75629       84.23679       10.53847
C         21.25730       85.24370        9.59852
C         22.78664       85.25294        9.56327
O         23.37622       86.15357       10.14420
C         20.60204       85.14412        8.18571
C         20.98889       86.33259        7.25947
C         19.07192       85.00636        8.27680
C         20.48277       87.70925        7.71704
H         20.24202       84.60274       11.35541
H         20.94031       86.21527       10.03650
H         20.96189       84.21837        7.69519
H         20.57007       86.14234        6.24737
H         22.09389       86.37899        7.15494
H         18.61466       85.86442        8.80947
H         18.63270       84.92979        7.25934
H         18.79969       84.08235        8.82344
H         19.37508       87.73254        7.77341
H         20.90473       87.99569        8.70087
H         20.79231       88.47960        6.98024
N         23.49604       84.29548        8.89616
C         24.94684       84.19664        8.91264
C         25.57236       84.97289        7.75337
O         26.36525       85.85466        8.05368
C         25.39490       82.71536        8.98885
C         24.90901       81.99867       10.22576
O         24.16649       82.62803       11.15800
O         25.19628       80.82355       10.38809
H         22.99790       83.58683        8.35390
H         25.33570       84.66144        9.84872
H         26.50544       82.67228        8.98486
H         25.02219       82.14318        8.12273
N         25.31078       84.77799        6.42270
C         24.37333       83.80311        5.87862
C         24.24363       83.85822        4.36726
O         24.83571       84.74076        3.76170
H         25.81995       85.39298        5.77017
H         23.37303       84.03396        6.27576
H         24.72166       82.80207        6.15023
N         23.47748       82.99094        3.63202
C         22.71726       81.80650        4.05407
C         21.58224       82.09013        5.07462
O         22.09163       82.09101        6.37317
C         23.61588       80.63482        4.50807
C         24.62111       80.25281        3.45699
O         24.59407       79.13846        2.96010
O         25.57091       81.12733        3.07311
H         23.43988       83.17888        2.61672
H         22.21124       81.41960        3.14334
H         22.96123       79.75943        4.71887
H         24.15898       80.86519        5.44067
N         20.86671       83.35136        4.83957
C         20.31038       83.55178        3.49190
C         20.86834       84.82649        2.91901
O         21.66262       85.48426        3.57904
H         20.10977       83.46516        5.55161
H         19.20413       83.64582        3.54673
H         20.52326       82.71260        2.80255
N         20.46612       85.26006        1.69384
C         20.91464       86.52714        1.12682
C         19.81708       87.57924        1.18812
O         20.13965       88.74231        0.98648
C         21.61030       86.33601       -0.24133
C         20.86398       85.48014       -1.27722
C         19.54490       86.05003       -1.70136
N         19.48235       87.23815       -2.33938
O         18.52099       85.41695       -1.49489
H         19.77026       84.69917        1.17949
H         21.69722       86.97068        1.78204
H         22.56548       85.79951       -0.04697
H         21.87791       87.32895       -0.66425
H         20.71980       84.45821       -0.86694
H         21.50388       85.37652       -2.18040
H         20.33514       87.78096       -2.53836
H         18.57517       87.60136       -2.65380
N         18.54363       87.28104        1.59401
C         17.61136       88.30347        2.06862
C         16.39117       88.49781        1.19104
O         15.60742       89.38088        1.51372
C         17.16856       87.97418        3.53081
C         18.37600       87.84992        4.47281
C         16.30848       86.69702        3.62838
H         18.25647       86.29909        1.68840
H         18.11952       89.29262        2.08822
H         16.54329       88.81808        3.89828
H         19.02714       86.99951        4.17707
H         18.97455       88.78414        4.45831
H         18.03104       87.67240        5.51417
H         15.96944       86.56268        4.67564
H         15.40169       86.77568        2.99258
H         16.87051       85.78734        3.33281
N         16.13902       87.73274        0.09219
C         14.93815       87.91224       -0.71650
C         14.02185       86.70282       -0.65381
O         12.95387       86.79008       -1.24426
C         15.32565       88.23335       -2.17570
C         16.05690       89.55047       -2.29510
N         15.45998       90.71008       -1.93380
O         17.19132       89.57733       -2.74375
H         16.79986       86.99055       -0.17799
H         14.32123       88.75192       -0.33179
H         14.41175       88.30787       -2.80392
H         15.95010       87.40420       -2.57787
H         14.49620       90.72063       -1.57153
H         15.96194       91.60559       -2.02766
N         14.32362       85.56286        0.04576
C         13.41541       84.41244        0.08242
C         13.87616       83.28606        1.00462
O         15.02297       83.24287        1.42877
C         13.18421       83.85294       -1.35391
C         14.47497       83.74573       -2.15081
C         14.65691       84.56750       -3.28019
C         15.51041       82.86978       -1.77890
C         15.84806       84.52726       -4.00785
C         16.70322       82.83108       -2.51027
C         16.87834       83.66108       -3.62248
O         18.03852       83.62146       -4.30869
H         15.20982       85.50867        0.56598
H         12.44731       84.75785        0.50899
H         12.50564       84.54829       -1.88658
H         12.64026       82.88607       -1.33517
H         13.88154       85.25554       -3.59352
H         15.40738       82.21965       -0.92419
H         15.97033       85.17582       -4.86653
H         17.49667       82.15951       -2.20752
H         18.20178       84.18892       -5.07597
N         12.96923       82.31867        1.34141
C         13.24486       81.08794        2.07976
C         13.72395       81.26071        3.51818
O         13.93185       80.23654        4.15497
C         14.16536       80.16072        1.25640
C         13.48899       79.77578       -0.07537
C         14.29147       78.80495       -0.89444
O         15.48752       78.35276       -0.47004
O         13.84641       78.41169       -1.96084
H         12.00221       82.42922        0.99823
H         12.28131       80.53806        2.18343
H         14.33505       79.22190        1.82858
H         15.14952       80.64199        1.07473
H         13.31306       80.68434       -0.68637
H         12.50539       79.30317        0.14312
N         13.84206       82.47334        4.13675
C         14.17478       82.60155        5.55648
C         13.00065       83.15532        6.35466
O         13.14365       83.28754        7.56304
C         15.40912       83.50678        5.74943
C         16.69387       83.03339        5.04998
C         17.20378       81.71474        5.56602
O         16.57244       80.68756        5.38322
O         18.38305       81.65650        6.21070
H         13.63363       83.33756        3.61833
H         14.39088       81.61201        6.00865
H         15.63161       83.60283        6.83621
H         15.15765       84.51633        5.36588
H         17.46864       83.80560        5.24774
H         16.54594       82.97380        3.95107
N         11.80795       83.47909        5.77108
C         10.67210       83.98894        6.51238
H          9.81166       83.29994        6.38112
H         10.87874       84.08575        7.59875
H         10.39619       84.98879        6.11771
H         11.67038       83.36145        4.75828
Ca        20.85788       80.71572        7.69807
O         19.91824       79.27900        4.84124
H         18.96512       79.05235        4.98395
H         19.92470       79.81288        4.00759
O         20.37848       77.45261        7.21719
H         21.11463       76.79105        7.23148
H         19.55192       76.90821        7.24494
O         17.41853       78.97436        7.97273
H         17.31143       78.55229        7.08362
H         16.50687       78.97825        8.35861
O         23.64090       79.43390        7.77046
H         23.53745       78.61349        7.22574
H         23.26846       79.19385        8.65587

Ca 1.0



