%chk=apoCaM-CA-Ng.loop3.water4.frame128.chk
%nprocshared=20
%mem=10GB
%nosave
#b3lyp/svp scf=(tight,noincore,xqc) Test 
#IOP(5/87=12) Density=Current Pop=(MK,readradii) iop(6/33=2) iop(6/42=6)

apoCaM-CA-Ng.loop3.water4.frame128 

   0  1 
C         65.23159       72.98860       13.02824
C         66.61958       73.06909       13.59313
O         66.78541       72.84146       14.78205
H         64.57459       73.71486       13.55080
H         65.22082       73.22326       11.94252
H         64.83028       71.96360       13.17011
N         67.67108       73.40000       12.79126
C         69.05542       73.51418       13.23614
C         69.19142       74.59237       14.29844
O         69.73862       74.33687       15.36133
C         69.61140       72.14782       13.70647
C         69.49322       71.09925       12.63708
O         68.76667       69.98760       12.86186
O         70.05851       71.24467       11.56515
H         67.48581       73.59839       11.79561
H         69.66440       73.84461       12.36499
H         69.06588       71.80302       14.61064
H         70.68407       72.25491       13.97818
N         68.67947       75.83499       14.06568
C         68.76953       76.92873       15.02889
C         67.40363       77.21289       15.62098
O         66.42415       76.61915       15.20106
C         69.34785       78.17935       14.34109
C         70.78052       77.94919       13.84342
C         71.30570       79.18850       13.11038
C         72.75974       78.99062       12.66567
N         73.24798       80.16397       11.94226
H         68.17430       76.00680       13.18377
H         69.42073       76.64465       15.88403
H         69.36481       79.03301       15.05246
H         68.69117       78.45499       13.48589
H         70.80895       77.08363       13.14605
H         71.43107       77.72581       14.71757
H         71.25112       80.07196       13.78360
H         70.66866       79.37944       12.21835
H         72.83315       78.09738       12.00616
H         73.39732       78.81986       13.56183
H         74.24634       80.00920       11.67325
H         72.68236       80.31024       11.07457
H         73.18841       81.01355       12.54951
N         67.29282       78.10028       16.65641
C         66.04006       78.35364       17.36908
C         66.24460       79.48071       18.38017
O         67.27730       79.52602       19.03109
C         65.54831       77.06511       18.07372
C         64.13519       77.18773       18.58259
O         63.26106       76.46264       18.13517
O         63.82373       78.06808       19.54680
H         68.14650       78.58964       16.95750
H         65.27196       78.66267       16.62636
H         66.24006       76.78424       18.89499
H         65.54261       76.22343       17.35632
N         65.27219       80.41588       18.57324
C         65.40760       81.55855       19.46639
C         65.81080       81.18507       20.87704
O         66.80814       81.71213       21.35098
H         64.38752       80.32055       18.05489
H         64.43827       82.10120       19.49822
H         66.16801       82.25408       19.04918
N         65.10172       80.27717       21.60419
C         65.44914       79.90326       22.97495
C         66.01199       78.48183       23.06896
O         66.21606       77.99855       24.17378
C         64.25051       80.14121       23.91333
C         63.13671       79.14483       23.74627
N         62.78862       78.35032       24.78036
O         62.53701       79.05397       22.68618
H         64.29641       79.82207       21.15804
H         66.25127       80.57004       23.35950
H         63.85463       81.16941       23.76478
H         64.62194       80.08250       24.95954
H         63.27002       78.40248       25.69027
H         62.02705       77.68107       24.66496
N         66.39276       77.80023       21.95009
C         67.07734       76.51775       21.97032
C         66.15850       75.35003       22.23661
O         66.43401       74.55966       23.12746
H         66.30035       78.25169       21.03225
H         67.93888       76.54971       22.67401
H         67.49785       76.33916       20.95723
N         65.07157       75.15437       21.43943
C         64.20957       73.97821       21.47638
C         62.82455       74.34179       21.94276
O         62.19384       75.21584       21.36299
C         64.09463       73.36241       20.07024
C         65.33135       72.62138       19.64733
C         66.08320       73.03360       18.53683
C         65.71138       71.46394       20.34668
C         67.19882       72.29333       18.13157
C         66.81892       70.72280       19.93628
C         67.56530       71.13289       18.82341
O         68.62752       70.41578       18.40671
H         64.85503       75.87680       20.74205
H         64.61031       73.21449       22.17615
H         63.82712       74.16211       19.34581
H         63.26855       72.61716       20.05322
H         65.80358       73.91817       17.98105
H         65.13535       71.12242       21.19829
H         67.77233       72.61425       17.27216
H         67.08749       69.82530       20.47886
H         68.89536       69.59573       18.84592
N         62.29071       73.67438       23.00419
C         60.98965       73.96790       23.57225
C         61.25328       74.61996       24.90233
O         60.86933       75.75794       25.07990
C         60.10746       72.69295       23.71423
C         59.92031       71.92619       22.37957
C         58.74234       73.03647       24.34736
C         59.17429       72.69123       21.28408
H         62.86126       72.95490       23.47311
H         60.44857       74.68125       22.92837
H         60.62230       71.98709       24.40153
H         59.35668       70.98985       22.58622
H         60.91705       71.63196       21.98658
H         58.87350       73.48611       25.35300
H         58.18015       73.76519       23.72687
H         58.13037       72.11791       24.46860
H         59.09648       72.05045       20.38040
H         58.14339       72.94903       21.60189
H         59.72024       73.61302       21.00940
N         61.96115       73.97418       25.86668
C         62.33159       74.58834       27.13322
C         61.11344       74.96183       27.94942
O         61.08606       76.06802       28.47152
C         63.24757       73.65055       27.93245
O         64.39313       73.32505       27.18770
H         62.28528       73.01461       25.67628
H         62.92511       75.51084       26.93310
H         62.70740       72.71210       28.17658
H         63.55284       74.12790       28.89059
H         64.90024       74.16834       27.04938
N         60.03982       74.11696       28.05520
C         58.83047       74.43144       28.81858
C         58.14714       75.72783       28.36198
O         57.26857       76.20830       29.06446
C         59.17640       74.46803       30.31424
H         60.07151       73.21151       27.56298
H         58.09547       73.60524       28.69767
H         59.62340       73.49400       30.61112
H         59.89489       75.27682       30.55543
H         58.25710       74.61602       30.91965
N         58.50469       76.34693       27.19907
C         58.01329       77.64173       26.75211
C         57.34856       77.53998       25.38929
O         57.29497       76.46271       24.81469
C         59.20245       78.60783       26.68555
H         59.18372       75.89109       26.59371
H         57.27240       78.04742       27.47485
H         59.95806       78.24243       25.95887
H         58.88253       79.62541       26.38116
H         59.68449       78.68050       27.68352
N         56.76033       78.64523       24.84716
C         55.99409       78.68397       23.60288
C         54.99672       77.53386       23.52268
O         54.83358       76.94793       22.46007
C         56.87536       78.79619       22.32111
C         57.85761       79.98262       22.36329
C         58.32608       80.40574       20.98372
O         57.92953       81.47436       20.54732
O         59.16560       79.68848       20.20399
H         56.75740       79.50890       25.41201
H         55.39727       79.62387       23.64470
H         56.16586       78.97124       21.48136
H         57.41858       77.85735       22.10326
H         58.71160       79.78485       23.04645
H         57.29598       80.84859       22.77582
N         54.33333       77.11242       24.63514
C         53.44684       75.96987       24.60589
H         52.57921       76.18007       23.94721
H         53.99293       75.07768       24.22730
H         53.08251       75.74529       25.63047
H         54.49788       77.57806       25.54043
Ca        60.52818       77.92326       20.54069
O         60.76945       78.25362       17.51263
H         60.82514       77.80181       16.63357
H         60.35198       79.13003       17.31805
O         59.64013       76.96407       22.80251
H         58.93241       76.33315       23.07675
H         59.77888       77.56709       23.57184
O         59.76827       75.46232       19.20561
H         60.56565       75.07770       18.76238
H         59.06485       75.45841       18.50974
O         61.97217       80.47986       19.64193
H         62.13849       81.03484       18.83962
H         61.90600       81.12872       20.38661

Ca 1.0



