%chk=apoCaM-CA-Ng.loop1.water6.frame568.chk
%nprocshared=20
%mem=10GB
%nosave
#b3lyp/svp scf=(tight,noincore,xqc) Test 
#IOP(5/87=12) Density=Current Pop=(MK,readradii) iop(6/33=2) iop(6/42=6)

apoCaM-CA-Ng.loop1.water6.frame568 

   0  1 
C         83.69714       27.91301       72.23107
C         82.77488       28.04367       71.05423
O         81.91007       28.90828       71.07913
H         84.25412       28.86448       72.36877
H         83.10850       27.70133       73.14725
H         84.43354       27.09569       72.08210
N         82.91998       27.23817       69.96359
C         82.09719       27.39440       68.76841
C         80.63277       27.06819       69.00890
O         80.28814       26.46539       70.01623
C         82.62022       26.52740       67.59800
C         82.46760       25.04273       67.83637
O         83.10355       24.43798       68.85761
O         81.76521       24.37633       67.09274
H         83.68890       26.55277       69.96380
H         82.18233       28.46100       68.46062
H         83.68911       26.76124       67.40846
H         82.05329       26.79592       66.67903
N         79.71693       27.45217       68.07851
C         78.29870       27.11700       68.12403
C         77.84752       26.61107       66.75620
O         78.65962       26.54800       65.84214
C         77.49182       28.34103       68.61026
C         77.62027       29.58721       67.72292
C         76.84635       30.75879       68.33910
C         76.98150       32.02384       67.48462
N         76.29358       33.15133       68.11262
H         80.04756       28.03522       67.29390
H         78.11458       26.31095       68.86862
H         77.85548       28.59445       69.63088
H         76.41829       28.06996       68.70398
H         77.23006       29.37005       66.70755
H         78.68807       29.87904       67.63987
H         77.25448       30.96479       69.35342
H         75.77060       30.49155       68.43525
H         76.54916       31.83903       66.47635
H         78.05834       32.27780       67.36515
H         76.71655       33.35165       69.04848
H         76.40014       33.99736       67.50785
H         75.27592       32.93775       68.22443
N         76.54816       26.26674       66.53125
C         76.05548       25.84827       65.21902
C         74.52683       25.89674       65.22348
O         73.89254       24.86785       65.03870
C         76.61968       24.44450       64.87383
C         76.24718       23.99910       63.48781
O         75.54344       22.86496       63.30917
O         76.60149       24.65001       62.51778
H         75.87569       26.36323       67.30702
H         76.40319       26.57053       64.44714
H         76.25264       23.70598       65.62035
H         77.72755       24.44922       64.92392
N         73.83624       27.04739       65.48689
C         74.45024       28.33792       65.76889
C         73.73660       29.51842       65.14570
O         74.12032       30.63146       65.47725
H         72.81343       26.97286       65.59577
H         75.51575       28.37626       65.47479
H         74.38640       28.49271       66.86637
N         72.68233       29.38633       64.28572
C         71.88503       30.52844       63.84020
C         70.44912       30.37227       64.30671
O         70.06932       29.30053       64.76128
C         71.99940       30.73652       62.31763
C         71.64053       29.51799       61.51212
O         70.52094       29.03655       61.57428
O         72.56040       28.96070       60.70109
H         72.39171       28.45004       63.97080
H         72.25338       31.46091       64.32077
H         73.05215       31.00863       62.08657
H         71.35617       31.58701       62.00344
N         69.60678       31.44552       64.29066
C         68.24293       31.39015       64.79333
C         68.13706       31.08491       66.27948
O         67.01216       30.93566       66.73751
H         69.94347       32.34306       63.91131
H         67.69221       30.60780       64.22662
H         67.74032       32.36426       64.61042
N         69.23039       30.94472       67.09122
C         69.14035       30.50872       68.48074
C         69.75973       29.13097       68.60210
O         70.49371       28.71281       67.71317
C         69.85704       31.50753       69.42352
C         69.23485       32.90284       69.36086
O         69.79557       31.04527       70.74961
H         70.17676       31.09171       66.71420
H         68.07466       30.41204       68.78478
H         70.92297       31.57514       69.09462
H         70.61635       31.36318       71.21008
H         69.78990       33.58710       70.03819
H         69.29040       33.31302       68.33119
H         68.17330       32.86523       69.68503
N         69.47144       28.34560       69.67551
C         70.03071       27.01064       69.83867
C         69.59990       26.14517       68.66460
O         70.45247       25.62411       67.96109
C         69.59626       26.33514       71.18367
C         69.79273       27.22004       72.44695
C         70.32831       24.98818       71.36072
C         71.21302       27.73873       72.66643
H         68.81825       28.71536       70.37925
H         71.14092       27.10036       69.85071
H         68.50667       26.11563       71.14423
H         69.48017       26.63814       73.34184
H         69.11670       28.09707       72.40758
H         71.42823       25.13347       71.40233
H         69.99905       24.48724       72.29541
H         70.10675       24.29957       70.51876
H         71.93147       26.90477       72.79136
H         71.52828       28.38375       71.82049
H         71.23120       28.35388       73.59118
N         68.27167       25.95468       68.41422
C         67.75927       25.07959       67.36501
C         67.00430       23.93065       68.02431
O         66.82287       23.94497       69.23348
C         66.86775       25.89717       66.38816
C         67.64212       27.04113       65.71379
O         66.29013       25.07874       65.40183
H         67.58236       26.42782       69.01780
H         68.60069       24.62898       66.79433
H         66.03774       26.35344       66.97059
H         67.02464       24.72054       64.83733
H         68.47878       26.63694       65.10758
H         66.96550       27.61045       65.04145
H         68.05360       27.74359       66.46708
N         66.60162       22.85687       67.28684
C         65.97745       21.67374       67.86821
C         66.94731       20.51622       67.72985
O         67.35119       19.96691       68.74693
C         64.59141       21.41635       67.22609
C         63.90450       20.18867       67.83041
O         64.69073       21.24199       65.83578
H         66.80962       22.84379       66.27975
H         65.79526       21.82228       68.95639
H         63.93528       22.29133       67.45288
H         64.55476       22.13219       65.41702
H         63.78857       20.30981       68.92826
H         62.89778       20.05996       67.37979
H         64.49435       19.27021       67.63223
N         67.40801       20.12822       66.50843
C         68.42374       19.10250       66.31921
C         69.65741       19.70805       65.67555
O         69.65147       20.87414       65.30107
C         67.86956       17.97963       65.41430
C         66.78228       17.14657       66.10295
C         66.23947       16.07435       65.14688
C         65.29947       15.10243       65.87116
N         64.74557       14.11884       64.94009
H         67.06201       20.60939       65.66466
H         68.74820       18.66995       67.29164
H         68.68479       17.27477       65.14356
H         67.48085       18.42818       64.47270
H         65.94322       17.79170       66.43713
H         67.23634       16.65826       66.99324
H         67.08306       15.48501       64.72440
H         65.70267       16.57482       64.31078
H         64.46664       15.65913       66.35423
H         65.87548       14.57310       66.66343
H         64.18688       13.41584       65.47573
H         64.11872       14.59562       64.25177
H         65.51306       13.62222       64.43145
N         70.76331       18.93549       65.50384
C         71.95392       19.37448       64.78820
C         72.61938       20.58290       65.44408
O         72.72876       21.58995       64.76095
C         72.94595       18.20413       64.57815
C         72.32075       17.08698       63.71485
C         73.23761       15.91192       63.51632
O         74.46211       15.87653       64.07792
O         72.85918       14.96463       62.84613
H         70.73244       17.97086       65.86692
H         71.63951       19.68411       63.76611
H         73.27211       17.77932       65.54731
H         73.84703       18.58512       64.04887
H         72.05625       17.50571       62.71944
H         71.39353       16.70095       64.18580
N         73.10785       20.62264       66.71932
C         73.03874       19.56408       67.70299
H         72.51668       19.94590       68.60496
H         72.48801       18.67573       67.35819
H         74.06890       19.26478       67.98948
H         73.56568       21.49501       67.02854
Ca        72.61751       23.61177       62.61800
O         74.36653       23.58946       60.13698
H         75.26885       23.37560       60.48304
H         74.52943       24.21948       59.39119
O         73.13316       20.86172       61.57045
H         72.46202       20.15009       61.41886
H         73.93206       20.56430       61.06747
O         70.54435       25.35858       63.89931
H         70.22161       25.72824       63.03952
H         70.84681       26.15063       64.40959
O         70.78276       24.68307       60.45722
H         70.64707       23.87685       59.89874
H         71.40064       25.25022       59.93117
O         73.74886       26.32295       62.07135
H         73.92069       26.40097       61.09967
H         72.82184       26.65029       62.18823
O         69.83940       22.14820       62.32623
H         69.95517       21.68915       61.45690
H         70.50758       21.72198       62.91836

Ca 1.0



