%chk=apoCaM-CA-Ng.loop3.water3.frame905.chk
%nprocshared=20
%mem=10GB
%nosave
#b3lyp/svp scf=(tight,noincore,xqc) Test 
#IOP(5/87=12) Density=Current Pop=(MK,readradii) iop(6/33=2) iop(6/42=6)

apoCaM-CA-Ng.loop3.water3.frame905 

   0  1 
C         89.63059      -22.84867       50.67724
C         89.70324      -24.08270       51.52106
O         90.63842      -24.22981       52.29490
H         88.70399      -22.29158       50.93762
H         90.50273      -22.18859       50.86739
H         89.60072      -23.12460       49.60398
N         88.70456      -25.00192       51.45007
C         88.61860      -26.13753       52.35254
C         89.78316      -27.11407       52.17342
O         89.94400      -27.68906       51.10672
C         87.24320      -26.82083       52.19776
C         86.93223      -27.75613       53.32587
O         85.85682      -28.33051       53.35992
O         87.81683      -27.94191       54.31988
H         87.92972      -24.82725       50.79046
H         88.63965      -25.72431       53.37951
H         87.18169      -27.34237       51.22003
H         86.45015      -26.04424       52.22728
N         90.62505      -27.34441       53.22100
C         91.75002      -28.28303       53.23457
C         91.27356      -29.71192       52.99846
O         91.87519      -30.42017       52.20387
C         92.45666      -28.16016       54.60963
C         93.69771      -29.04809       54.79666
C         94.32968      -28.77100       56.17307
C         95.53134      -29.68169       56.45601
N         96.10584      -29.38969       57.77110
H         90.44010      -26.82020       54.08803
H         92.49299      -27.99897       52.45589
H         91.73151      -28.40143       55.41523
H         92.77265      -27.09937       54.73163
H         94.44274      -28.83415       53.99932
H         93.39918      -30.11670       54.73516
H         93.56831      -28.93747       56.96656
H         94.65925      -27.70887       56.21672
H         96.30940      -29.53459       55.67479
H         95.20073      -30.74371       56.43045
H         95.38697      -29.52558       58.51907
H         96.90461      -30.03986       57.95136
H         96.45888      -28.40535       57.80001
N         90.16993      -30.17862       53.64579
C         89.63738      -31.53761       53.53704
C         88.37681      -31.62489       52.67309
O         87.88048      -32.72806       52.48782
C         89.38142      -32.10563       54.95956
C         88.60751      -31.15059       55.85645
O         89.09454      -30.79330       56.91593
O         87.44647      -30.60120       55.44112
H         89.66006      -29.51080       54.23489
H         90.36748      -32.19957       53.01884
H         90.36495      -32.30546       55.43911
H         88.85376      -33.07995       54.87804
N         87.83857      -30.53746       52.05695
C         86.71214      -30.59832       51.13456
C         85.35720      -30.96911       51.72442
O         84.41112      -30.94832       50.95013
H         88.29837      -29.62695       52.16705
H         86.95471      -31.30187       50.30812
H         86.58885      -29.59209       50.68002
N         85.15649      -31.32029       53.03410
C         83.82788      -31.64970       53.56814
C         83.50767      -30.85581       54.82588
O         84.39115      -30.22751       55.37303
C         83.70089      -33.16450       53.87270
C         84.35706      -33.62055       55.16563
N         85.69526      -33.57577       55.35526
O         83.64536      -34.04354       56.06527
H         85.96067      -31.36323       53.66276
H         83.06252      -31.41062       52.79898
H         84.06722      -33.76241       53.01082
H         82.61404      -33.38005       53.97506
H         86.33248      -33.25504       54.61930
H         86.10084      -33.88236       56.25252
N         82.26447      -30.89833       55.37905
C         81.93953      -30.34791       56.68975
C         82.26972      -28.88040       56.84547
O         81.80471      -28.08032       56.04551
H         81.51647      -31.39682       54.87412
H         82.47577      -30.93279       57.46656
H         80.85009      -30.48247       56.86389
N         83.03899      -28.45218       57.89740
C         83.30600      -27.03838       58.15179
C         84.57440      -26.56131       57.40869
O         84.67289      -27.15144       56.15029
C         83.51287      -26.76396       59.65759
C         82.29226      -27.03517       60.50194
C         81.11555      -26.28882       60.31392
C         82.33177      -28.00711       61.51520
C         80.00026      -26.51035       61.12799
C         81.21464      -28.22848       62.32634
C         80.04756      -27.48071       62.13928
O         78.98393      -27.69832       62.93903
H         83.36658      -29.14625       58.58670
H         82.43045      -26.44862       57.80045
H         83.77841      -25.69521       59.81304
H         84.37582      -27.37259       60.00877
H         81.06466      -25.52507       59.54804
H         83.22902      -28.58904       61.68432
H         79.10356      -25.92219       60.97714
H         81.25970      -28.97716       63.10715
H         78.16205      -27.19463       62.85168
N         84.59322      -25.07650       57.35716
C         85.56750      -24.36763       56.49803
C         86.97748      -24.82273       56.81482
O         87.29825      -25.98366       56.60824
C         85.21281      -24.40602       54.97053
C         86.27115      -23.69097       54.08623
C         83.81524      -23.80980       54.69819
C         86.50322      -22.20690       54.37624
H         83.64049      -24.66419       57.24884
H         85.49827      -23.29748       56.78930
H         85.19935      -25.45306       54.61261
H         85.96993      -23.78883       53.01997
H         87.24020      -24.20812       54.20412
H         83.59162      -23.82563       53.61079
H         83.01672      -24.39848       55.19144
H         83.75000      -22.76137       55.05928
H         86.88054      -22.05458       55.40496
H         87.27468      -21.82208       53.67561
H         85.57786      -21.61562       54.22943
N         87.88168      -23.93444       57.31989
C         89.22326      -24.31093       57.73297
C         89.57883      -23.55592       58.99718
O         89.72887      -22.34255       58.93915
C         90.23240      -24.00676       56.62100
O         89.90825      -24.74288       55.47353
H         87.60019      -22.94966       57.44250
H         89.25803      -25.40398       57.93430
H         91.25557      -24.29522       56.94290
H         90.23732      -22.91121       56.40638
H         89.75624      -24.09467       54.73909
N         89.70856      -24.21420       60.18194
C         90.04448      -23.55395       61.44689
C         90.15724      -24.56975       62.58161
O         89.59006      -25.64845       62.46608
C         88.98056      -22.51103       61.83064
H         89.57007      -25.23551       60.16417
H         91.03323      -23.06791       61.30221
H         87.98296      -22.99215       61.90576
H         89.21393      -22.05245       62.80976
H         88.91977      -21.68811       61.09172
N         90.90306      -24.36085       63.70601
C         91.72231      -23.18583       63.98922
C         91.65222      -22.82839       65.47040
O         91.61979      -23.74097       66.28428
C         93.17376      -23.52419       63.64798
H         90.97982      -25.15694       64.35898
H         91.44937      -22.32598       63.35326
H         93.25394      -23.77867       62.56942
H         93.83143      -22.65145       63.84822
H         93.52969      -24.38989       64.24617
N         91.76279      -21.55285       65.94326
C         91.88726      -20.35914       65.11772
C         90.53342      -19.99246       64.55454
O         90.40045      -19.88162       63.34410
C         92.47306      -19.18430       65.93306
C         93.89836      -19.50639       66.42371
C         94.51218      -18.34309       67.14566
O         94.69026      -17.28347       66.56617
O         94.89569      -18.47204       68.43019
H         91.80712      -21.43721       66.96874
H         92.61312      -20.53636       64.29307
H         91.82223      -18.94156       66.80170
H         92.52244      -18.29084       65.27117
H         94.54685      -19.76144       65.55740
H         93.87483      -20.38117       67.10786
N         89.47138      -19.80067       65.38541
C         88.14995      -19.48565       64.88958
H         87.44020      -19.39274       65.73935
H         88.16968      -18.52586       64.33233
H         87.79369      -20.29838       64.22104
H         89.59769      -19.90089       66.40407
Ca        86.32062      -28.79416       56.34317
O         87.24593      -28.29231       59.33646
H         87.93644      -27.76786       59.81451
H         87.33077      -29.20757       59.70441
O         86.00346      -31.41135       58.07081
H         85.05018      -31.64578       57.94329
H         86.13659      -31.43070       59.05153
O         89.47327      -28.01767       57.05484
H         90.32030      -28.33658       57.45560
H         89.75027      -27.32369       56.40719

Ca 1.0



