%chk=apoCaM-CA-Ng.loop2.water4.frame1111.chk
%nprocshared=20
%mem=10GB
%nosave
#b3lyp/svp scf=(tight,noincore,xqc) Test 
#IOP(5/87=12) Density=Current Pop=(MK,readradii) iop(6/33=2) iop(6/42=6)

apoCaM-CA-Ng.loop2.water4.frame1111 

   -2  1 
C         62.75077       69.46983       62.74620
C         64.12246       69.40139       63.35546
O         64.29429       69.90576       64.45562
H         62.04814       69.99715       63.42600
H         62.78912       70.02370       61.78534
H         62.36669       68.44186       62.57652
N         65.17282       68.79016       62.73767
C         65.11742       68.15635       61.41980
C         66.12577       68.81801       60.48095
O         66.80318       69.75313       60.88690
C         65.28796       66.62052       61.54614
C         66.63309       66.22508       62.05527
O         67.46633       65.49961       61.29425
O         67.01553       66.60538       63.15002
H         66.07318       68.78647       63.24029
H         64.12026       68.30062       60.95950
H         65.13497       66.15023       60.55214
H         64.50933       66.21870       62.22924
N         66.22947       68.40949       59.18276
C         67.00633       69.08460       58.14410
C         68.52482       69.10738       58.32356
O         69.15802       69.65612       57.43059
C         66.47507       70.51894       57.95169
H         65.64697       67.61775       58.87359
H         66.81664       68.54637       57.18833
H         66.96443       71.00748       57.08197
H         65.38147       70.49749       57.75805
H         66.66417       71.15028       58.84444
N         69.19515       68.57922       59.39875
C         70.64713       68.74107       59.55100
C         71.41553       67.43259       59.64223
O         70.83053       66.36304       59.57712
C         70.95264       69.71082       60.71745
C         70.78505       69.30047       62.16728
O         70.42794       68.07836       62.61442
O         71.05118       70.14098       63.00895
H         68.67208       68.11368       60.15042
H         71.06054       69.25247       58.65499
H         70.34657       70.62747       60.54418
H         72.01632       70.01802       60.63100
N         72.77315       67.46187       59.74785
C         73.60521       66.29119       59.95293
C         73.55949       65.86848       61.40512
O         72.53745       65.37507       61.85771
H         73.25718       68.36989       59.69263
H         74.65010       66.58624       59.71924
H         73.34522       65.46570       59.25506
N         74.63562       66.10709       62.21163
C         74.67951       65.80377       63.63639
C         74.56469       67.10387       64.40636
O         75.26284       68.05465       64.07908
C         75.99309       65.07763       63.98250
C         75.98346       64.59225       65.41402
N         76.88165       65.04981       66.31672
O         75.14836       63.76945       65.76031
H         75.44996       66.59832       61.81085
H         73.83574       65.13592       63.91557
H         76.85212       65.76153       63.79970
H         76.11855       64.19087       63.32494
H         77.59087       65.74877       66.05421
H         76.86064       64.70740       67.28938
N         73.67507       67.22229       65.43147
C         73.40433       68.47795       66.11296
C         74.60693       69.10066       66.80010
O         75.68130       68.51737       66.78432
H         73.12356       66.39742       65.71291
H         72.61849       68.30297       66.87983
H         73.01647       69.19322       65.35706
N         74.52317       70.31041       67.43261
C         73.29866       71.10519       67.54476
C         73.44156       72.44126       66.83542
O         74.52473       72.77730       66.37760
C         72.93601       71.30436       69.03520
C         72.59171       69.95224       69.69184
O         73.99424       71.97349       69.68880
H         75.38122       70.68965       67.86497
H         72.44607       70.59969       67.05107
H         72.02457       71.93331       69.11997
H         74.18938       71.53603       70.55765
H         72.29133       70.11049       70.74944
H         71.73892       69.47796       69.16028
H         73.46145       69.26269       69.66684
N         72.35046       73.25194       66.71060
C         72.34539       74.54117       66.01476
C         71.22707       75.46517       66.53813
O         70.29808       74.97870       67.16846
C         72.22704       74.35974       64.45663
C         71.25644       73.23454       63.99804
C         73.59284       74.10240       63.80104
C         69.80483       73.37476       64.44657
H         71.47244       72.92156       67.13645
H         73.28076       75.06312       66.27553
H         71.88345       75.31772       64.02032
H         71.63688       72.25313       64.35351
H         71.25049       73.20967       62.88576
H         73.48721       74.10586       62.69429
H         74.30756       74.90883       64.07053
H         74.01187       73.11897       64.08245
H         69.71316       73.27626       65.54206
H         69.37975       74.34330       64.11456
H         69.20864       72.55004       63.99968
N         71.21799       76.82396       66.33912
C         72.34450       77.60744       65.82043
C         71.91900       78.98381       65.29846
O         70.76786       79.37029       65.43287
C         73.40497       77.80383       66.93985
C         72.87193       78.60087       68.10479
O         71.84062       78.13537       68.83593
O         73.38206       79.66975       68.39977
H         70.39766       77.33918       66.69384
H         72.79281       77.07992       64.95754
H         74.29165       78.32458       66.52026
H         73.76492       76.83843       67.33901
N         72.84876       79.78186       64.69273
C         72.60037       81.14633       64.23679
C         72.88632       81.25688       62.74053
O         73.94425       80.79605       62.33592
C         73.56486       82.10211       64.97112
C         73.25992       83.53301       64.59753
C         74.02698       84.19832       63.62550
C         72.16971       84.19574       65.18650
C         73.69851       85.50202       63.24176
C         71.85448       85.50479       64.81054
C         72.61480       86.15534       63.83500
H         73.80267       79.41143       64.56931
H         71.57298       81.46324       64.48816
H         74.60945       81.84021       64.68925
H         73.49240       81.98999       66.07488
H         74.85927       83.69902       63.14519
H         71.56483       83.69667       65.93347
H         74.27968       86.00333       62.47870
H         71.01486       86.01103       65.26868
H         72.36146       87.16402       63.53576
N         72.07607       81.93055       61.85876
C         70.83057       82.62754       62.15621
C         69.76255       81.71855       62.70472
O         69.13662       82.05057       63.69923
C         70.38607       83.17949       60.79335
C         71.71261       83.43658       60.12052
C         72.47466       82.16826       60.48411
H         71.03690       83.47654       62.83928
H         69.88660       82.38427       60.19356
H         69.70031       84.05153       60.85647
H         71.65941       83.64757       59.03170
H         72.19577       84.30036       60.63388
H         72.15084       81.30253       59.86460
H         73.56374       82.35345       60.36121
N         69.53750       80.52187       62.10189
C         68.52943       79.57404       62.54365
C         67.17885       80.03337       62.01301
O         67.03274       80.09823       60.80028
C         68.87777       78.17581       61.98275
C         70.21635       77.66021       62.54672
C         70.68021       76.43558       61.81670
O         71.87217       76.44285       61.18820
O         69.98899       75.43139       61.78709
H         70.14123       80.26285       61.30654
H         68.54946       79.49503       63.65135
H         68.95002       78.24863       60.87448
H         68.07928       77.44365       62.23419
H         70.09916       77.43487       63.62818
H         71.01100       78.42917       62.43876
N         66.13408       80.39093       62.81194
C         66.17948       80.40039       64.25644
H         65.20178       80.74399       64.65726
H         66.38270       79.38083       64.64289
H         66.95784       81.10574       64.61055
H         65.25470       80.69044       62.36192
Ca        69.49503       66.23095       61.77388
O         68.20353       63.28808       63.34863
H         67.36279       62.88574       63.68248
H         68.91860       62.79464       63.82273
O         70.63925       63.23007       60.96499
H         70.39769       63.21495       60.00492
H         70.46028       62.30954       61.28249
O         70.32116       66.76676       65.16166
H         70.66294       67.69580       65.16166
H         70.21511       66.54494       66.11990
O         71.38273       63.93090       64.22566
H         71.60806       64.14293       65.16602
H         71.59501       62.96865       64.12955

Ca 1.0



