%chk=apoCaM-CA-Ng.loop3.water5.frame1073.chk
%nprocshared=20
%mem=10GB
%nosave
#b3lyp/svp scf=(tight,noincore,xqc) Test 
#IOP(5/87=12) Density=Current Pop=(MK,readradii) iop(6/33=2) iop(6/42=6)

apoCaM-CA-Ng.loop3.water5.frame1073 

   0  1 
C         38.97835       85.59345        6.16615
C         38.79307       86.98420        6.69341
O         38.61343       87.14061        7.89276
H         39.87537       85.13458        6.63049
H         38.08293       84.98606        6.41319
H         39.10928       85.59351        5.06326
N         38.82833       88.04884        5.84540
C         38.61521       89.42278        6.27160
C         37.39240       89.98693        5.55633
O         36.41296       90.26560        6.23385
C         39.93079       90.24962        6.18411
C         40.75838       90.21977        4.91633
O         40.43031       89.58192        3.93255
O         41.94428       90.85559        4.90467
H         38.99567       87.87090        4.84505
H         38.36045       89.44952        7.35634
H         40.60862       89.84038        6.96578
H         39.71274       91.30378        6.45894
N         37.35430       90.17357        4.20556
C         36.18467       90.66747        3.48269
C         36.42281       92.12010        3.14096
O         36.46231       92.51549        1.98413
C         35.92622       89.78638        2.24932
C         35.52657       88.35709        2.65353
C         35.34593       87.42535        1.44584
C         36.67980       87.11006        0.74499
N         36.48437       86.17006       -0.35670
H         38.19355       89.99254        3.64911
H         35.27272       90.65483        4.12186
H         36.84850       89.78926        1.63393
H         35.09856       90.21903        1.64497
H         34.55965       88.41808        3.20066
H         36.27935       87.90974        3.33847
H         34.62211       87.87083        0.72842
H         34.92074       86.46787        1.81744
H         37.38094       86.66192        1.48459
H         37.14310       88.03434        0.34230
H         36.06771       85.27900       -0.00162
H         35.85797       86.59239       -1.07978
H         37.41159       85.95931       -0.79204
N         36.58468       92.97260        4.18228
C         36.85682       94.39678        4.09097
C         38.19223       94.65261        4.75824
O         38.28401       95.47868        5.65757
C         35.68727       95.19095        4.74378
C         35.37563       94.81698        6.18668
O         34.42187       95.32868        6.75028
O         36.11474       93.89398        6.83812
H         36.53900       92.55132        5.11356
H         36.94290       94.70773        3.02694
H         34.77295       94.98918        4.14453
H         35.89774       96.28096        4.68525
N         39.27353       93.90051        4.40562
C         40.52369       93.97223        5.13415
C         41.24893       95.27489        4.92974
O         40.92653       95.99820        3.99767
H         39.17874       93.18561        3.66811
H         41.20265       93.17027        4.79618
H         40.29960       93.80443        6.20469
N         42.25505       95.67276        5.75794
C         42.63790       94.97846        6.99052
C         43.21120       93.58197        6.73441
O         43.80761       93.37399        5.68798
C         43.64167       95.84531        7.78448
C         43.03865       97.16164        8.24048
N         43.80020       98.06073        8.90169
O         41.86255       97.42102        8.02376
H         42.71252       96.57227        5.53890
H         41.72950       94.88624        7.61796
H         44.52884       96.04382        7.14499
H         43.99013       95.31217        8.69149
H         44.79351       97.86850        9.09328
H         43.39433       98.95480        9.21661
N         43.08078       92.55948        7.64055
C         42.40973       92.73667        8.92107
C         42.35411       91.51810        9.81560
O         42.75912       90.42698        9.43714
H         43.48978       91.64165        7.40465
H         41.36129       93.04782        8.75355
H         42.94379       93.52341        9.48887
N         41.86466       91.68876       11.07635
C         41.74674       90.64989       12.09511
C         40.32835       90.66542       12.66980
O         39.57519       91.57851       12.35203
C         42.80170       90.98947       13.17529
C         42.92905       90.04061       14.34077
C         42.73772       90.51291       15.65145
C         43.29134       88.69833       14.14277
C         42.90951       89.66005       16.74405
C         43.46098       87.84517       15.23918
C         43.27441       88.32587       16.54422
O         43.45049       87.52060       17.61118
H         41.60156       92.64915       11.35398
H         41.96272       89.65244       11.65314
H         42.58616       92.01451       13.55261
H         43.79798       91.02837       12.68195
H         42.47032       91.54677       15.83217
H         43.45480       88.31624       13.14336
H         42.76944       90.04109       17.74808
H         43.74734       86.81432       15.07443
H         43.71871       86.59534       17.51995
N         39.88559       89.70554       13.53516
C         38.56412       89.78938       14.17597
C         38.46400       91.03305       15.05937
O         39.45464       91.72179       15.25698
C         38.18668       88.50903       14.99882
C         37.77367       87.35155       14.05926
C         39.27650       88.09886       16.01210
C         37.17842       86.15346       14.80779
H         40.50612       88.91014       13.73157
H         37.79723       89.91871       13.37921
H         37.27147       88.74433       15.58176
H         38.62762       87.02190       13.43153
H         36.97069       87.72714       13.38562
H         40.18808       87.71845       15.50857
H         39.55244       88.95785       16.65737
H         38.91003       87.29155       16.67768
H         36.80394       85.40565       14.07767
H         37.93710       85.65826       15.44587
H         36.32264       86.47778       15.44019
N         37.26045       91.38159       15.60776
C         37.05974       92.57286       16.42874
C         35.99780       93.47554       15.81537
O         35.36486       93.08351       14.84642
C         36.66718       92.14604       17.85052
O         35.47626       91.40585       17.82552
H         36.44010       90.78388       15.42821
H         38.00170       93.15870       16.49187
H         36.53640       93.04143       18.49603
H         37.49144       91.51925       18.26216
H         35.36553       91.02728       18.73610
N         35.76735       94.72155       16.33641
C         34.78458       95.67548       15.81513
C         33.33885       95.23840       16.03467
O         32.44566       95.91035       15.53797
C         35.06688       96.00118       14.33825
H         36.34380       95.03073       17.13290
H         34.90040       96.63250       16.37064
H         36.11324       96.35558       14.22535
H         34.91108       95.12865       13.67475
H         34.39046       96.81021       13.98964
N         33.02817       94.15538       16.80489
C         31.67929       93.66837       17.06383
C         31.00819       93.19529       15.79081
O         29.82636       93.44717       15.59306
C         30.83559       94.69374       17.84236
H         33.78516       93.62120       17.25212
H         31.78091       92.76834       17.71037
H         31.35096       94.97518       18.78405
H         30.65860       95.61232       17.24513
H         29.84633       94.25976       18.10348
N         31.71503       92.47281       14.87790
C         31.09010       91.87618       13.70924
C         30.28210       90.68339       14.15758
O         29.08845       90.64415       13.89323
C         32.13012       91.53231       12.61500
C         32.74370       92.84605       12.09568
C         33.47715       92.73704       10.79408
O         33.04122       93.33723        9.82367
O         34.65372       92.10157       10.67578
H         32.72368       92.32131       15.03033
H         30.39584       92.60927       13.23641
H         31.58070       91.04979       11.77685
H         32.91561       90.82941       12.97199
H         33.40487       93.30294       12.86059
H         31.91106       93.55796       11.90534
N         30.86195       89.70238       14.90382
C         30.13005       88.57447       15.44223
H         29.06176       88.57828       15.13936
H         30.59502       87.63110       15.09191
H         30.17377       88.60974       16.55178
H         31.86318       89.77542       15.14037
Ca        35.63006       92.83163        8.77263
O         38.75606       93.27309        8.41710
H         39.13146       93.93009        9.05415
H         38.46350       93.82117        7.65035
O         35.80135       89.12114        8.92292
H         36.42769       88.68046        9.55002
H         35.77221       88.51575        8.14018
O         37.96106       91.02725        9.93316
H         38.32761       90.18911       10.31088
H         37.51734       91.47529       10.69677
O         33.46611       91.13692        7.07235
H         32.62651       91.54882        7.39776
H         33.35071       91.07899        6.09060
O         35.85810       95.39981       10.12082
H         36.75299       95.61898        9.75787
H         36.02588       95.14300       11.06223

Ca 1.0



