%chk=apoCaM-CA-Ng.loop4.water3.frame337.chk
%nprocshared=20
%mem=10GB
%nosave
#b3lyp/svp scf=(tight,noincore,xqc) Test 
#IOP(5/87=12) Density=Current Pop=(MK,readradii) iop(6/33=2) iop(6/42=6)

apoCaM-CA-Ng.loop4.water3.frame337 

   -3  1 
C         84.96019       69.12734       48.52498
C         85.81082       67.98882       48.05287
O         86.81262       67.71169       48.68454
H         83.94551       68.74932       48.77039
H         85.39397       69.58460       49.44183
H         84.88998       69.90110       47.73447
N         85.44738       67.26066       46.95949
C         86.15556       66.07873       46.47581
C         86.14908       64.98464       47.51995
O         87.19886       64.60834       47.99869
C         87.51712       66.38729       45.78522
C         88.64909       67.09458       46.50289
O         89.38728       66.49291       47.46022
O         89.04229       68.16094       46.05622
H         84.57898       67.52452       46.46985
H         85.56290       65.65122       45.63506
H         87.26044       67.01428       44.90240
H         87.92574       65.43346       45.38344
N         84.95372       64.41131       47.86538
C         84.70642       63.31536       48.81130
C         85.37417       62.02035       48.33549
O         84.67026       61.15410       47.83503
C         84.99403       63.73317       50.28411
C         84.57683       62.65298       51.32116
C         84.29535       65.07055       50.61142
C         83.08965       62.27843       51.33644
H         84.11442       64.77831       47.38935
H         83.61015       63.13474       48.75194
H         86.08584       63.90182       50.40291
H         84.85352       63.01721       52.33413
H         85.13970       61.72338       51.14007
H         83.19712       64.99979       50.46592
H         84.49962       65.37176       51.66037
H         84.66970       65.88301       49.95489
H         82.78166       61.82472       50.37266
H         82.91389       61.52332       52.13163
H         82.44830       63.15485       51.55732
N         86.72411       61.84440       48.39028
C         87.43020       60.79797       47.66120
C         87.51443       59.46474       48.40311
O         87.26038       58.45389       47.76408
C         88.83071       61.31113       47.24708
C         89.51976       60.38574       46.28107
O         89.01073       60.13625       45.19919
O         90.71556       59.85142       46.59162
H         87.29757       62.56137       48.84393
H         86.90948       60.64383       46.68712
H         89.47391       61.46432       48.13515
H         88.71692       62.29318       46.73577
N         87.90043       59.32781       49.70881
C         88.05798       60.44408       50.62468
C         88.43142       60.00421       52.02911
O         87.79710       59.07863       52.51532
H         88.00859       58.36962       50.07753
H         87.07743       60.93104       50.71251
H         88.74996       61.17251       50.21202
N         89.36916       60.62763       52.81279
C         90.14467       61.82203       52.48505
C         89.19908       62.98261       52.16402
O         89.12209       63.38608       51.01251
C         91.22865       61.53599       51.41365
C         92.22481       62.66287       51.27827
O         93.15107       62.55426       50.49183
O         92.13096       63.77607       52.03232
H         89.50185       60.25401       53.76609
H         90.74707       62.08406       53.37813
H         90.80797       61.32664       50.41644
H         91.79957       60.63727       51.73100
N         88.41971       63.58316       53.11116
C         88.61428       63.45144       54.54122
C         87.72132       62.43908       55.19110
O         86.87968       61.83190       54.54330
H         87.79733       64.34049       52.81169
H         88.38217       64.43216       55.01318
H         89.67515       63.26095       54.78353
N         87.87012       62.22692       56.52737
C         87.01436       61.33998       57.30192
C         85.61037       61.89824       57.42134
O         84.71002       61.12753       57.72646
C         87.56793       61.17799       58.73856
C         88.92074       60.44537       58.80574
C         88.83390       58.96962       58.48040
N         89.94692       58.20430       58.53594
O         87.76535       58.45094       58.18997
H         88.62764       62.73422       57.01132
H         86.97169       60.35336       56.79299
H         86.84768       60.62516       59.38114
H         87.68712       62.19570       59.17577
H         89.30038       60.52743       59.84666
H         89.65750       60.93724       58.13545
H         90.85652       58.61690       58.78858
H         89.89720       57.19493       58.33225
N         85.36169       63.23579       57.29338
C         84.04387       63.82586       57.50254
C         84.03182       64.77625       58.69782
O         82.96185       65.27524       59.01480
C         83.54566       64.53188       56.21422
C         83.50541       63.54854       55.03504
C         84.39387       65.75719       55.84738
H         86.14169       63.87096       57.07214
H         83.30582       63.02813       57.74125
H         82.50611       64.88604       56.39339
H         84.52458       63.18014       54.79446
H         82.86109       62.67787       55.28006
H         83.09198       64.04588       54.13228
H         84.38380       66.50605       56.66713
H         85.44460       65.47139       55.64182
H         83.97068       66.23995       54.94222
N         85.16152       65.05908       59.41989
C         85.15949       65.90257       60.60946
C         86.07960       67.11558       60.46713
O         86.11658       67.89479       61.41099
C         85.60339       65.01733       61.80067
C         85.52682       65.69845       63.14631
N         84.33928       66.10689       63.64985
O         86.54738       65.86356       63.79779
H         86.06070       64.63058       59.16310
H         84.13498       66.28278       60.81081
H         86.64613       64.67582       61.61473
H         84.95747       64.11427       61.84970
H         83.46463       65.95807       63.12676
H         84.29259       66.55988       64.57490
N         86.84973       67.36383       59.35834
C         87.81456       68.46935       59.32259
C         88.43665       68.70439       57.94911
O         88.72302       67.75950       57.22672
C         88.92024       68.27410       60.40051
C         89.61530       66.92587       60.35205
C         90.53483       66.60102       59.33957
C         89.34991       65.97545       61.35535
C         91.16356       65.35008       59.32744
C         89.97217       64.72520       61.33795
C         90.88078       64.40672       60.32620
O         91.47794       63.19765       60.32833
H         86.77475       66.74771       58.53568
H         87.27382       69.40928       59.57377
H         88.43882       68.37401       61.39299
H         89.66868       69.09432       60.36492
H         90.78182       67.31440       58.56717
H         88.65162       66.19737       62.15087
H         91.87291       65.11635       58.54365
H         89.74837       64.00448       62.11485
H         92.11974       62.93789       59.65233
N         88.73556       69.98743       57.57295
C         89.46206       70.38674       56.36608
C         88.71986       70.13782       55.06206
O         89.27684       70.45030       54.01809
C         90.89560       69.81792       56.35363
C         91.68390       70.30513       57.58145
C         93.11243       69.85326       57.53193
O         93.60883       69.07713       58.51346
O         93.83800       70.20697       56.61575
H         88.48411       70.75147       58.21938
H         89.58007       71.49435       56.39613
H         91.41344       70.19405       55.44318
H         90.88774       68.70897       56.31072
H         91.20817       69.92146       58.50866
H         91.67332       71.41712       57.61809
N         87.42615       69.71596       55.03930
C         86.62159       69.69867       53.82479
C         85.69583       70.89633       53.86289
O         85.70856       71.67475       52.91879
C         85.84881       68.37613       53.68432
C         86.74007       67.12353       53.58707
C         87.64341       67.11931       52.38538
O         88.55657       67.92074       52.28297
O         87.46877       66.18947       51.43142
H         86.94466       69.52239       55.92703
H         87.24470       69.82531       52.91519
H         85.21621       68.42339       52.76959
H         85.17486       68.26090       54.55878
H         86.06425       66.24630       53.49935
H         87.34701       66.99722       54.50879
N         84.92438       71.15376       54.95752
C         84.11046       72.34429       55.09264
H         83.06158       72.05422       55.30170
H         84.49467       72.94973       55.94177
H         84.13083       72.97953       54.18226
H         84.94672       70.51037       55.76161
Ca        88.73104       66.14678       49.58294
O         91.37172       66.41143       51.00919
H         92.10206       66.99749       51.32971
H         90.89710       66.13177       51.83223
O         90.60959       63.92234       48.45013
H         91.43340       64.24681       48.89206
H         90.79468       64.01154       47.48181
O         89.81163       69.06949       49.78460
H         90.36813       69.11455       50.60237
H         90.31850       69.58836       49.11128

Ca 1.0



