%chk=apoCaM-CA-Ng.loop3.water6.frame48.chk
%nprocshared=20
%mem=10GB
%nosave
#b3lyp/svp scf=(tight,noincore,xqc) Test 
#IOP(5/87=12) Density=Current Pop=(MK,readradii) iop(6/33=2) iop(6/42=6)

apoCaM-CA-Ng.loop3.water6.frame48 

   0  1 
C         52.00547       64.15368       33.91825
C         50.99732       64.73875       32.97722
O         50.79789       64.19249       31.90524
H         52.80916       64.89663       34.10612
H         51.51470       63.89110       34.87808
H         52.46211       63.23790       33.48458
N         50.32791       65.87503       33.31194
C         49.36679       66.54800       32.44255
C         50.04546       66.95119       31.14473
O         49.59181       66.61774       30.05884
C         48.08350       65.71674       32.22752
C         47.34498       65.41724       33.51046
O         46.29281       64.80061       33.46690
O         47.81480       65.82894       34.70501
H         50.53974       66.31675       34.22010
H         49.05313       67.49222       32.94309
H         48.32665       64.76969       31.70811
H         47.39380       66.29565       31.57545
N         51.16220       67.71785       31.22178
C         51.87796       68.26652       30.07220
C         52.71159       67.21347       29.32701
O         53.34085       67.56902       28.34044
C         52.76485       69.43311       30.57600
C         51.89059       70.53743       31.22208
C         52.71420       71.58378       31.97568
C         51.77900       72.57781       32.68681
N         52.53381       73.53074       33.49741
H         51.48075       67.97234       32.16997
H         51.14166       68.70398       29.36097
H         53.35069       69.88140       29.74452
H         53.47784       69.02553       31.32691
H         51.20397       70.09786       31.97287
H         51.26256       71.01977       30.44126
H         53.39157       72.11929       31.27694
H         53.32615       71.06408       32.74580
H         51.08217       72.02083       33.35453
H         51.17140       73.12584       31.93294
H         53.18369       74.08309       32.89350
H         51.86415       74.18253       33.96718
H         53.07620       73.02170       34.23321
N         52.77254       65.90908       29.73545
C         53.57521       64.86650       29.08247
C         53.13597       64.62598       27.63638
O         52.11189       65.15112       27.22001
C         53.45159       63.56975       29.92836
C         54.27816       62.39837       29.48184
O         55.62076       62.47353       29.45458
O         53.73369       61.34434       29.19405
H         52.25408       65.64544       30.57879
H         54.63364       65.20837       29.08153
H         52.38241       63.26568       29.94252
H         53.75576       63.79821       30.97302
N         53.90330       63.87006       26.79342
C         53.55425       63.63521       25.39812
C         52.36655       62.70732       25.21219
O         51.84525       62.65758       24.10765
H         54.80414       63.50736       27.13083
H         54.41362       63.18684       24.85490
H         53.34339       64.61966       24.92571
N         51.89850       61.92607       26.22795
C         50.70466       61.08790       26.13759
C         49.64265       61.55161       27.13416
O         48.57223       60.96016       27.16228
C         51.07779       59.60567       26.35767
C         51.87773       59.04935       25.20319
N         51.33641       58.97088       23.96303
O         53.01133       58.63924       25.39179
H         52.39813       61.92982       27.12688
H         50.22681       61.18134       25.13898
H         50.15981       58.98421       26.43246
H         51.63976       59.50417       27.31313
H         50.37154       59.28584       23.78520
H         51.87571       58.57713       23.17750
N         49.83309       62.64482       27.92921
C         48.81025       63.22453       28.77699
C         48.41152       62.34418       29.92918
O         47.23022       62.07254       30.08754
H         50.72012       63.15837       27.89703
H         47.92679       63.49881       28.16064
H         49.21615       64.15890       29.21786
N         49.35089       61.89677       30.80684
C         49.00801       61.17109       32.03087
C         50.22184       60.41342       32.56995
O         51.28578       60.47121       31.96713
C         48.39549       62.16778       33.04677
C         47.77158       61.53801       34.26144
C         46.66428       60.68591       34.12119
C         48.28651       61.79415       35.54385
C         46.08556       60.09187       35.24483
C         47.70861       61.19399       36.66600
C         46.60562       60.33973       36.51924
O         46.03857       59.75322       37.59226
H         50.33572       62.10471       30.58916
H         48.25553       60.40047       31.77338
H         47.58667       62.73849       32.55261
H         49.18242       62.87976       33.35309
H         46.24960       60.48287       33.14171
H         49.14030       62.44785       35.67494
H         45.23254       59.43664       35.12323
H         48.11958       61.39238       37.64774
H         46.36936       59.89506       38.49053
N         50.11782       59.60697       33.66698
C         51.18200       58.69154       34.05645
C         51.37437       57.72514       32.89944
O         52.47717       57.64420       32.37566
C         50.92054       58.02504       35.45220
C         52.07093       57.07788       35.88822
C         49.59105       57.25280       35.57257
C         53.44944       57.73881       35.95820
H         49.23698       59.57543       34.18044
H         52.10938       59.29013       34.18722
H         50.86848       58.85588       36.19274
H         52.12715       56.20565       35.20155
H         51.84338       56.69723       36.90893
H         49.57286       56.37101       34.90407
H         49.46746       56.88914       36.61573
H         48.70825       57.88784       35.36708
H         54.18800       57.00284       36.34118
H         53.79581       58.06117       34.95569
H         53.42860       58.61081       36.64546
N         50.30181       57.07185       32.36059
C         50.35926       56.41259       31.06067
C         50.61209       54.92939       31.16702
O         50.77259       54.31032       30.12421
C         49.06851       56.67833       30.26834
O         48.89278       58.05382       30.06438
H         49.37351       57.21460       32.78651
H         51.19816       56.84091       30.46696
H         48.18656       56.23672       30.79073
H         49.12311       56.19253       29.27099
H         48.33701       58.38044       30.81649
N         50.71627       54.28945       32.37123
C         51.05037       52.87664       32.51182
C         52.45810       52.55347       32.01607
O         52.82173       51.38658       32.07194
C         49.99591       51.99142       31.81910
H         50.56770       54.81619       33.24332
H         51.02331       52.61966       33.59409
H         50.20518       50.91849       32.01539
H         48.98451       52.22361       32.21450
H         49.98516       52.12782       30.71907
N         53.30937       53.51118       31.52686
C         54.62824       53.20527       30.99133
C         55.71665       53.97415       31.71065
O         55.42464       54.88690       32.47234
C         54.65003       53.56997       29.50412
H         53.02864       54.49954       31.50297
H         54.84554       52.12097       31.09613
H         54.45121       54.65729       29.37254
H         55.63316       53.33071       29.04852
H         53.86240       53.00239       28.96489
N         57.02224       53.62934       31.50359
C         58.17655       54.32899       32.06137
C         58.23201       54.33364       33.58848
O         59.15562       54.93487       34.12142
C         58.27274       55.76074       31.48337
C         58.36945       55.73654       29.94806
C         58.57587       57.11477       29.39267
O         59.67293       57.82132       29.72710
O         57.76435       57.59196       28.61691
H         57.22056       52.82890       30.88383
H         59.09596       53.79777       31.72607
H         59.19471       56.23947       31.88177
H         57.40221       56.37625       31.79577
H         57.44008       55.29909       29.52197
H         59.22947       55.10579       29.63444
N         57.32544       53.67665       34.36879
C         57.39875       53.70985       35.81369
H         58.36718       53.28728       36.15596
H         57.30223       54.75677       36.17317
H         56.57314       53.10828       36.24986
H         56.56610       53.12411       33.95123
Ca        56.75333       60.58968       28.92485
O         57.24731       59.99353       31.91189
H         58.08497       59.77704       31.43027
H         56.80196       59.11857       32.03864
O         58.61855       59.79750       26.43676
H         58.24635       59.14951       25.78725
H         59.34985       59.30746       26.88898
O         56.62327       61.94808       26.28015
H         56.61422       61.70658       25.32057
H         57.41209       62.53656       26.38611
O         59.39856       61.89940       29.49296
H         59.79118       61.03560       29.20947
H         59.06990       62.30952       28.65354
O         55.49509       58.71609       26.83461
H         55.83612       57.99817       26.24441
H         55.38055       59.49622       26.23608
O         54.73003       57.91154       29.72923
H         53.82510       58.24244       29.50085
H         54.87697       58.21383       30.66022

Ca 1.0



