%chk=apoCaM-CA-Ng.loop2.water4.frame1172.chk
%nprocshared=20
%mem=10GB
%nosave
#b3lyp/svp scf=(tight,noincore,xqc) Test 
#IOP(5/87=12) Density=Current Pop=(MK,readradii) iop(6/33=2) iop(6/42=6)

apoCaM-CA-Ng.loop2.water4.frame1172 

   -2  1 
C        101.51106       47.88691       32.39749
C        100.52460       47.02843       31.65579
O        100.58967       47.01863       30.43450
H        102.16368       48.42024       31.67307
H        100.97029       48.64341       33.00115
H        102.18662       47.29608       33.03552
N         99.53958       46.30186       32.26198
C         99.30095       46.18716       33.70842
C         97.95649       45.50098       33.99302
O         97.24949       45.15752       33.05894
C        100.42646       45.36224       34.39979
C        100.48166       43.93943       33.91607
O        100.23340       42.93201       34.77326
O        100.74574       43.68972       32.75135
H         98.89930       45.82170       31.61482
H         99.25426       47.20483       34.15222
H        100.25461       45.35147       35.49574
H        101.42093       45.80861       34.27015
N         97.56624       45.25285       35.28198
C         96.43972       44.42279       35.72376
C         95.80354       43.55471       34.63643
O         94.59812       43.61797       34.43390
C         95.41919       45.30123       36.46019
H         98.14224       45.64285       36.04246
H         96.84879       43.69271       36.45647
H         94.60279       44.67833       36.88493
H         95.91104       45.84073       37.29782
H         94.98103       46.04873       35.76464
N         96.58458       42.70889       33.89626
C         96.06652       41.82638       32.85289
C         96.55753       40.40236       33.05717
O         97.34417       40.15528       33.96137
C         96.46135       42.35500       31.45456
C         97.94597       42.40062       31.20369
O         98.68188       41.27423       31.23481
O         98.48408       43.45655       30.91983
H         97.60328       42.71799       34.05761
H         94.95534       41.81217       32.88713
H         96.03467       43.37536       31.33359
H         96.00318       41.71463       30.67231
N         96.11767       39.40175       32.24260
C         96.56971       38.02796       32.36829
C         97.95421       37.83377       31.78215
O         98.89081       38.48914       32.21393
H         95.39460       39.61022       31.53813
H         95.85929       37.37013       31.82485
H         96.54351       37.72035       33.43624
N         98.15289       36.89411       30.81085
C         99.45179       36.57523       30.22756
C         99.37738       36.66767       28.70714
O         98.58432       35.96592       28.09467
C         99.86372       35.16463       30.68947
C        100.10126       35.15764       32.18332
N         99.30920       34.44611       33.01841
O        101.01983       35.81861       32.64432
H         97.34872       36.32487       30.50489
H        100.23357       37.28130       30.58627
H        100.80448       34.84486       30.19094
H         99.06441       34.44181       30.41417
H         98.51806       33.89412       32.65853
H         99.47742       34.46489       34.03601
N        100.18369       37.54387       28.04073
C        100.18586       37.76945       26.59824
C        100.66210       36.59057       25.77616
O        100.76069       35.49560       26.31166
H        100.82314       38.13264       28.59557
H        100.88038       38.61318       26.41679
H         99.18019       38.05281       26.25500
N        101.04479       36.71516       24.46565
C        101.16404       37.97882       23.72676
C         99.82242       38.56676       23.29004
O         99.03286       37.87305       22.66588
C        102.13105       37.82703       22.51160
C        101.64892       36.91163       21.37504
O        102.47235       39.09127       21.99452
H        101.41155       35.86137       24.01734
H        101.70657       38.70293       24.37149
H        103.07331       37.38391       22.90464
H        101.66232       39.48369       21.57680
H        100.74136       37.32271       20.88803
H        102.44459       36.84370       20.60215
H        101.43569       35.88788       21.74068
N         99.56216       39.89040       23.50549
C         98.38667       40.61440       23.00989
C         98.86239       41.69633       22.03639
O         99.80780       42.39412       22.37605
C         97.62452       41.25520       24.20644
C         97.10898       40.19587       25.20833
C         96.46684       42.16564       23.76095
C         96.10443       39.18235       24.64070
H        100.26999       40.44265       24.01390
H         97.70308       39.92724       22.48333
H         98.34235       41.90697       24.75357
H         96.63620       40.71240       26.07058
H         97.97601       39.64733       25.59906
H         96.83921       42.98724       23.11426
H         95.68710       41.60878       23.20684
H         95.99450       42.63140       24.65094
H         95.81364       38.47005       25.44027
H         95.18318       39.68462       24.28296
H         96.54155       38.58856       23.81311
N         98.28279       41.94166       20.81926
C         97.04738       41.32917       20.32896
C         96.18487       42.32860       19.55107
O         96.61860       43.44397       19.29314
C         97.36484       40.05972       19.50572
C         98.20630       40.33123       18.28721
O         97.77773       40.06608       17.17543
O         99.45065       40.83035       18.41600
H         98.71090       42.68430       20.24339
H         96.41626       41.02895       21.18195
H         96.41327       39.57699       19.19481
H         97.90837       39.33164       20.14464
N         94.93917       41.96465       19.12780
C         94.09454       42.77987       18.25757
C         92.69610       42.94884       18.84400
O         92.09030       41.93000       19.15280
C         94.03202       42.04872       16.89684
C         93.26751       42.78861       15.82157
C         91.86349       42.88551       15.85640
C         93.96286       43.36970       14.74699
C         91.17545       43.55784       14.84265
C         93.27111       44.04524       13.73838
C         91.87862       44.13961       13.78592
H         94.60070       41.01889       19.36442
H         94.56131       43.76512       18.06037
H         93.61155       41.02430       17.00484
H         95.08773       41.92749       16.56628
H         91.29316       42.43169       16.65443
H         95.04241       43.30589       14.69132
H         90.09551       43.62387       14.87484
H         93.81631       44.49339       12.91827
H         91.34452       44.65930       13.00149
N         92.05301       44.16194       18.93772
C         92.58247       45.45676       18.52242
C         93.67876       45.96727       19.42943
O         94.75243       46.29665       18.94501
C         91.36560       46.39973       18.58146
C         90.22139       45.44419       18.31373
C         90.62986       44.26933       19.19640
H         92.91146       45.37947       17.46148
H         91.20355       46.77802       19.61617
H         91.43410       47.28068       17.90744
H         89.21310       45.85768       18.52868
H         90.26567       45.12936       17.24651
H         90.47656       44.53379       20.26672
H         90.04890       43.35675       18.94183
N         93.46345       46.06499       20.77343
C         94.45695       46.59337       21.69630
C         94.61455       48.09311       21.45408
O         93.63208       48.79528       21.65300
C         94.02971       46.36604       23.16686
C         93.89126       44.87335       23.50527
C         93.55000       44.67514       24.95382
O         92.51812       44.10477       25.27004
O         94.39028       45.11013       25.91241
H         92.55888       45.74268       21.14859
H         95.38847       46.01960       21.56129
H         93.06399       46.87952       23.37438
H         94.80992       46.80681       23.82725
H         94.84911       44.36145       23.29342
H         93.10255       44.40637       22.87810
N         95.76250       48.70549       21.03517
C         97.01894       48.06815       20.69412
H         97.81863       48.45770       21.35712
H         97.01509       46.97114       20.76798
H         97.27369       48.32371       19.64412
H         95.74255       49.73248       20.93187
Ca       100.20545       40.81099       34.01447
O        103.03392       40.78841       35.05251
H        102.90066       40.42855       35.96533
H        103.21573       41.75205       35.18827
O        102.04222       39.97323       31.82539
H        103.00759       40.05384       32.03013
H        102.00830       39.51858       30.94680
O        101.31152       37.98660       34.81666
H        102.29010       37.99507       34.66783
H        100.92723       38.15141       33.91992
O         99.08208       40.14048       36.81827
H         99.75290       39.51599       37.19303
H         99.49411       41.03547       36.91730

Ca 1.0



