%chk=apoCaM-CA-Ng.loop3.water3.frame565.chk
%nprocshared=20
%mem=10GB
%nosave
#b3lyp/svp scf=(tight,noincore,xqc) Test 
#IOP(5/87=12) Density=Current Pop=(MK,readradii) iop(6/33=2) iop(6/42=6)

apoCaM-CA-Ng.loop3.water3.frame565 

   0  1 
C         50.84967       -9.29952       81.07819
C         50.35114      -10.69241       81.32519
O         49.50284      -10.87161       82.18762
H         51.60633       -9.27787       80.26561
H         49.99587       -8.65688       80.77368
H         51.30404       -8.89066       82.00318
N         50.80325      -11.73111       80.56952
C         50.26450      -13.07684       80.69372
C         50.64562      -13.69786       82.03781
O         51.82766      -13.83748       82.31896
C         50.72930      -13.94033       79.49975
C         49.97134      -15.23205       79.37950
O         50.23970      -16.01396       78.48270
O         48.99110      -15.53435       80.24747
H         51.49475      -11.53691       79.82845
H         49.16654      -12.98962       80.60093
H         51.81963      -14.14234       79.58545
H         50.54666      -13.38247       78.55623
N         49.67849      -14.08312       82.92000
C         49.94889      -14.65144       84.24304
C         50.74063      -15.95252       84.15041
O         51.75722      -16.06582       84.82054
C         48.61234      -14.84836       85.00715
C         48.78254      -15.30964       86.46741
C         47.42576      -15.31658       87.19450
C         47.55284      -15.78743       88.65093
N         46.25753      -15.73855       89.33302
H         48.69475      -13.94040       82.64314
H         50.53631      -13.91209       84.83335
H         47.96637      -15.57677       84.47894
H         48.09079      -13.86495       85.02102
H         49.46261      -14.60967       87.00009
H         49.22656      -16.32840       86.48725
H         46.71562      -15.98490       86.65946
H         47.01763      -14.28250       87.19143
H         48.27239      -15.13542       89.19410
H         47.93889      -16.83058       88.67011
H         45.56487      -16.35060       88.84350
H         46.37244      -16.07829       90.31551
H         45.90010      -14.75554       89.35841
N         50.33331      -16.97163       83.33978
C         50.99028      -18.28070       83.26865
C         51.66793      -18.54687       81.91989
O         52.23041      -19.62230       81.76452
C         49.97223      -19.38273       83.66844
C         48.70361      -19.33865       82.86039
O         48.73746      -19.52034       81.53352
O         47.65258      -19.01914       83.39279
H         49.50579      -16.81468       82.74945
H         51.81750      -18.34156       84.00953
H         49.70296      -19.20881       84.73334
H         50.43340      -20.39073       83.59702
N         51.73972      -17.60327       80.93428
C         52.51095      -17.78075       79.70460
C         51.98394      -18.82713       78.73180
O         52.63475      -19.02311       77.71474
H         51.32043      -16.68013       81.09626
H         53.55714      -18.03959       79.97918
H         52.55315      -16.81394       79.15994
N         50.84850      -19.54717       78.96388
C         50.37282      -20.62871       78.10027
C         48.91491      -20.39304       77.68375
O         48.21882      -19.63282       78.34017
C         50.47400      -21.92968       78.94090
C         50.26722      -23.24889       78.23291
N         50.14960      -24.38212       78.96207
O         50.23153      -23.31789       77.01611
H         50.32482      -19.36673       79.82210
H         51.01950      -20.70527       77.19879
H         49.73180      -21.84770       79.76594
H         51.48198      -21.99015       79.40768
H         50.17694      -24.34957       79.99181
H         50.01187      -25.29214       78.49794
N         48.36933      -21.06952       76.63293
C         46.95086      -21.08333       76.30309
C         46.38627      -19.72362       75.97333
O         46.91094      -19.05633       75.09298
H         48.97718      -21.65268       76.04591
H         46.38874      -21.54211       77.14556
H         46.80494      -21.73568       75.41509
N         45.26798      -19.27332       76.61772
C         44.64566      -17.98079       76.33573
C         45.57060      -16.82844       76.70946
O         46.64727      -17.05009       77.24388
C         43.31035      -17.83903       77.11152
C         42.19655      -18.73064       76.61183
C         41.65258      -19.72909       77.43707
C         41.64629      -18.52660       75.33301
C         40.57566      -20.50500       76.99388
C         40.56413      -19.29824       74.89534
C         40.02249      -20.28828       75.72745
O         38.96801      -21.02806       75.32701
H         44.82665      -19.88931       77.31819
H         44.43890      -17.90795       75.24491
H         42.91498      -16.80478       77.03706
H         43.51113      -18.03092       78.18358
H         42.05323      -19.90122       78.42778
H         42.03693      -17.75288       74.68378
H         40.16085      -21.26682       77.64193
H         40.13953      -19.11773       73.91523
H         38.53920      -20.89412       74.46947
N         45.19266      -15.55227       76.40287
C         45.97384      -14.33712       76.61864
C         46.21435      -14.06352       78.09759
O         46.94167      -14.82527       78.71319
C         47.34635      -14.37139       75.86146
C         47.98655      -12.95636       75.88849
C         47.19165      -14.88462       74.41650
C         49.40985      -12.89584       75.33469
H         44.28756      -15.42200       75.92602
H         45.37254      -13.50159       76.19309
H         48.02574      -15.08272       76.38181
H         48.04867      -12.59875       76.93647
H         47.34330      -12.24845       75.32041
H         48.17701      -14.95981       73.91417
H         46.77622      -15.91372       74.40780
H         46.52580      -14.22250       73.82680
H         50.07622      -13.56230       75.92186
H         49.44948      -13.17700       74.26415
H         49.78686      -11.85442       75.42067
N         45.69466      -12.96378       78.72373
C         46.14205      -12.54305       80.05408
C         45.12103      -12.73836       81.16117
O         45.47868      -12.50650       82.30862
C         46.59861      -11.07468       79.99575
O         47.61359      -10.90614       79.04097
H         45.03093      -12.35967       78.21459
H         47.00462      -13.16161       80.36548
H         46.99459      -10.75012       80.98069
H         45.72968      -10.41133       79.76926
H         47.17826      -10.59201       78.20494
N         43.85599      -13.18403       80.92797
C         42.91669      -13.46083       82.01426
C         43.41614      -14.64905       82.82557
O         43.65575      -15.68078       82.21817
C         41.53943      -13.79503       81.43656
H         43.55351      -13.34283       79.95568
H         42.79723      -12.54949       82.63665
H         40.81855      -13.99081       82.25758
H         41.16716      -12.93563       80.84004
H         41.59271      -14.69075       80.78077
N         43.60406      -14.64104       84.17871
C         43.24871      -13.55150       85.08169
C         41.73846      -13.34407       85.05683
O         41.03514      -14.34410       85.00551
C         43.66288      -13.91796       86.51371
H         43.99034      -15.50338       84.59783
H         43.82107      -12.64990       84.79182
H         44.75612      -14.09258       86.55763
H         43.42064      -13.09382       87.21247
H         43.14260      -14.83871       86.85656
N         41.11925      -12.12693       85.09935
C         41.75996      -10.83561       85.31596
C         41.55007       -9.94850       84.10729
O         42.53079       -9.51154       83.52109
C         41.16552      -10.16517       86.57570
C         41.36870      -11.01287       87.84050
C         40.76885      -10.34634       89.04467
O         39.57146      -10.11097       89.08667
O         41.54781      -10.02201       90.09408
H         40.08945      -12.12497       85.02741
H         42.84758      -10.93641       85.49049
H         40.07559       -9.99939       86.43236
H         41.65213       -9.17551       86.72499
H         42.45528      -11.15934       88.01204
H         40.88650      -12.00678       87.71731
N         40.29227       -9.63589       83.68119
C         40.02019       -8.77509       82.54857
H         39.41427       -7.90847       82.88739
H         40.94704       -8.38927       82.07513
H         39.44327       -9.34061       81.78767
H         39.47681      -10.02018       84.18007
Ca        48.24522      -17.63524       80.43886
O         45.99365      -20.09567       80.20360
H         46.54756      -20.85551       80.51397
H         45.21268      -20.09193       80.81156
O         45.03024      -17.13072       80.06805
H         44.82180      -16.18738       79.85150
H         44.16969      -17.50916       80.37974
O         46.41862      -15.83092       82.38163
H         46.08724      -16.51526       83.01560
H         47.37971      -16.03183       82.28914

Ca 1.0



