%chk=apoCaM-CA-Ng.loop4.water4.frame172.chk
%nprocshared=20
%mem=10GB
%nosave
#b3lyp/svp scf=(tight,noincore,xqc) Test 
#IOP(5/87=12) Density=Current Pop=(MK,readradii) iop(6/33=2) iop(6/42=6)

apoCaM-CA-Ng.loop4.water4.frame172 

   -3  1 
C         58.61049       66.00467       11.11972
C         57.23766       66.30036       10.59951
O         56.60021       65.40003       10.07501
H         59.34963       66.65939       10.61347
H         58.64063       66.18852       12.21373
H         58.88161       64.94370       10.92843
N         56.70660       67.54962       10.74043
C         55.37295       67.93871       10.29308
C         54.31622       67.01935       10.87584
O         53.66426       66.30590       10.13408
C         55.26719       68.18061        8.76092
C         55.55189       67.02922        7.83665
O         54.66809       66.59543        7.11541
O         56.80277       66.54970        7.70661
H         57.26253       68.25886       11.24249
H         55.15470       68.94914       10.70821
H         55.95460       69.00714        8.47948
H         54.23152       68.54055        8.56529
N         54.12283       67.01180       12.22860
C         53.13188       66.25107       12.99646
C         51.71084       66.75841       12.74598
O         51.14331       67.33849       13.66208
C         53.28929       64.71036       12.85581
C         52.35578       63.92986       13.82642
C         54.75414       64.28788       13.07074
C         52.61803       64.16528       15.32318
H         54.74195       67.62195       12.78570
H         53.35722       66.49256       14.05806
H         53.00966       64.41238       11.82225
H         52.47464       62.84186       13.63097
H         51.29762       64.19166       13.61288
H         54.85404       63.18872       12.98492
H         55.40716       64.74269       12.30177
H         55.13096       64.60508       14.06431
H         51.91037       63.55641       15.92225
H         53.64649       63.85989       15.60568
H         52.45966       65.22344       15.61022
N         51.07942       66.62197       11.54285
C         49.78431       67.22766       11.26327
C         48.66763       66.53283       12.04384
O         48.06861       67.20877       12.86851
C         49.53068       67.33502        9.73759
C         50.53364       68.21841        9.03227
O         50.43465       68.39391        7.82857
O         51.53777       68.81846        9.70289
H         51.54085       66.12673       10.77718
H         49.81845       68.28848       11.60640
H         48.52185       67.77010        9.57039
H         49.58745       66.35452        9.24121
N         48.30641       65.21931       11.90636
C         48.89654       64.28995       10.95255
C         48.31941       62.88448       11.02707
O         47.46135       62.63949       11.86342
H         47.55286       64.88612       12.52651
H         49.98733       64.23359       11.13322
H         48.66279       64.65963        9.95488
N         48.72833       61.86089       10.21142
C         49.72678       61.90680        9.14202
C         51.10975       62.30627        9.65027
O         51.61643       63.33982        9.23883
C         49.26836       62.74296        7.92051
C         47.95132       62.26221        7.37413
O         47.88625       61.80857        6.24281
O         46.83316       62.34462        8.12048
H         48.28827       60.93953       10.36738
H         49.83086       60.88072        8.72442
H         50.04245       62.63777        7.12724
H         49.19298       63.81976        8.13369
N         51.84260       61.52025       10.49170
C         51.40775       60.24370       11.02308
C         50.48962       60.42197       12.19688
O         50.27203       61.54314       12.63482
H         52.79555       61.82104       10.72888
H         52.29134       59.69173       11.41146
H         50.96030       59.62020       10.22219
N         49.95779       59.32838       12.80205
C         49.14408       59.41035       14.00415
C         49.90777       58.89868       15.21980
O         49.36677       58.97480       16.31286
C         47.73876       58.81167       13.76223
C         47.62121       57.37862       13.21356
C         48.11555       56.31540       14.15449
N         47.25314       55.43992       14.72066
O         49.30620       56.22478       14.39447
H         50.18838       58.39541       12.42541
H         48.94911       60.47465       14.26490
H         47.25316       59.46268       13.00036
H         47.13835       58.89983       14.69375
H         48.13335       57.28086       12.23268
H         46.53809       57.21074       13.02522
H         46.24136       55.49580       14.53560
H         47.59637       54.70718       15.35758
N         51.21367       58.49180       15.12133
C         52.07865       58.26791       16.27740
C         52.67698       56.87126       16.32346
O         53.42199       56.61474       17.26244
C         53.21149       59.34062       16.29724
C         52.62583       60.75157       16.43682
C         54.13374       59.28030       15.06280
H         51.66013       58.43126       14.19873
H         51.50164       58.38480       17.22111
H         53.84080       59.16035       17.19726
H         51.99750       61.01123       15.55812
H         52.00442       60.82119       17.35485
H         53.44588       61.49555       16.51927
H         53.58775       59.52205       14.12740
H         54.95539       60.02020       15.16796
H         54.59227       58.27458       14.96155
N         52.39918       55.90912       15.39563
C         52.95490       54.56129       15.47641
C         53.69739       54.13762       14.21146
O         54.28866       53.06860       14.23985
C         51.81151       53.55335       15.72654
C         50.95749       53.90845       16.91961
N         51.48297       53.97967       18.16337
O         49.76725       54.13003       16.75702
H         51.73353       56.11405       14.64004
H         53.67621       54.49254       16.31959
H         52.22822       52.53304       15.87238
H         51.15825       53.53311       14.82772
H         52.48180       53.79347       18.32788
H         50.88335       54.22326       18.96622
N         53.62749       54.84794       13.04138
C         54.10222       54.30765       11.76947
C         54.84228       55.34969       10.94893
O         54.27298       56.40117       10.70141
C         52.87589       53.83015       10.95716
C         52.10231       52.74775       11.67727
C         52.71144       51.51675       11.97813
C         50.76487       52.95866       12.05553
C         52.00070       50.52128       12.65361
C         50.05462       51.95928       12.72903
C         50.66910       50.73999       13.03268
O         49.97280       49.78847       13.68665
H         53.07628       55.71407       12.99909
H         54.76050       53.42662       11.92214
H         53.20746       53.42560        9.97649
H         52.21279       54.70182       10.75787
H         53.73829       51.32652       11.69360
H         50.27121       53.89720       11.83628
H         52.48688       49.58109       12.88186
H         49.02632       52.13508       13.01905
H         50.36230       48.93255       13.91634
N         56.05808       55.05228       10.38640
C         56.76554       55.86300        9.38634
C         57.56115       57.03448        9.94349
O         58.70962       57.18047        9.54528
C         55.86502       56.32983        8.21785
C         55.17033       55.15887        7.50701
C         54.35796       55.64519        6.34122
O         53.02816       55.43533        6.31032
O         54.89905       56.22286        5.41142
H         56.44681       54.11409       10.56444
H         57.52543       55.19891        8.91105
H         56.51016       56.85494        7.47786
H         55.10817       57.06373        8.56290
H         54.50135       54.63208        8.21867
H         55.92928       54.43650        7.13630
N         57.02599       57.94418       10.80467
C         57.71695       59.17282       11.19754
C         59.03702       58.94477       11.93220
O         59.72661       59.92762       12.17228
C         56.80443       60.05889       12.08220
C         55.44809       60.45311       11.46452
C         55.55396       61.31454       10.23589
O         55.04735       62.56211       10.25957
O         56.02675       60.87351        9.20097
H         56.07659       57.78868       11.14810
H         57.96213       59.72922       10.26804
H         57.33978       60.99680       12.34951
H         56.59745       59.50508       13.02477
H         54.89034       61.01706       12.23970
H         54.83226       59.56402       11.22443
N         59.47311       57.71204       12.31946
C         60.74968       57.53363       12.97881
H         61.56965       57.89179       12.31891
H         60.76931       58.10287       13.93228
H         60.91864       56.45856       13.19893
H         58.90299       56.87246       12.15198
Ca        54.77405       63.78674        8.38515
O         57.29428       63.42754        6.78264
H         57.37830       63.16933        7.73511
H         56.73280       62.71708        6.38172
O         51.76496       65.17108        7.07738
H         51.93827       65.98559        7.61208
H         51.09950       65.45063        6.40027
O         53.19047       61.36110        7.15662
H         52.24959       61.06367        7.07642
H         53.70581       60.52526        7.28288
O         53.91675       63.98621        5.35573
H         53.40967       64.57882        4.74572
H         54.63880       63.60849        4.79391

Ca 1.0



