%chk=apoCaM-CA-Ng.loop1.water3.frame426.chk
%nprocshared=20
%mem=10GB
%nosave
#b3lyp/svp scf=(tight,noincore,xqc) Test 
#IOP(5/87=12) Density=Current Pop=(MK,readradii) iop(6/33=2) iop(6/42=6)

apoCaM-CA-Ng.loop1.water3.frame426 

   0  1 
C         95.12319       73.73822       74.83319
C         95.07257       74.95807       73.96033
O         94.90049       74.83629       72.75588
H         94.31109       73.78977       75.58940
H         94.99734       72.81290       74.23332
H         96.10104       73.69683       75.35846
N         95.21140       76.18702       74.52376
C         95.15077       77.43905       73.77148
C         96.38985       77.67688       72.89677
O         96.48197       78.75899       72.34313
C         94.97124       78.63538       74.74180
C         93.67940       78.57346       75.52181
O         93.44608       77.57651       76.39643
O         92.83886       79.44747       75.37770
H         95.32411       76.22907       75.54813
H         94.24712       77.43927       73.12601
H         94.93698       79.57072       74.14173
H         95.82999       78.70218       75.44418
N         97.38203       76.76073       72.71444
C         98.62525       77.03286       71.98787
C         98.74802       76.17254       70.72976
O         98.31077       75.03009       70.78831
C         99.78945       76.71500       72.94912
C         99.88878       77.74034       74.08647
C        101.02099       77.36261       75.04570
C        101.18383       78.40744       76.15475
N        102.21200       77.99209       77.10826
H         97.29648       75.82748       73.13907
H         98.68991       78.09116       71.69079
H        100.75350       76.71550       72.41994
H         99.66064       75.68760       73.35553
H         98.93215       77.78421       74.65059
H        100.09050       78.74414       73.65069
H        101.97955       77.28077       74.48604
H        100.78582       76.37495       75.49910
H        100.21931       78.53663       76.69375
H        101.46838       79.38446       75.70266
H        101.92921       77.09511       77.56681
H        103.12879       77.86411       76.62127
H        102.31604       78.72766       77.84362
N         99.40156       76.55489       69.57471
C        100.06055       77.83844       69.27481
C        101.05341       78.19441       70.34843
O        100.82543       79.14894       71.06381
C         99.04296       78.96946       68.97177
C         98.24581       78.66853       67.73483
O         97.34568       79.41661       67.38817
O         98.48269       77.53760       67.04140
H         99.48083       75.84009       68.83498
H        100.64516       77.74595       68.33164
H         99.57989       79.92755       68.79365
H         98.34928       79.11810       69.81947
N        102.18603       77.48513       70.57555
C        102.65267       76.40907       69.71891
C        103.93377       75.79801       70.25427
O        104.26715       76.01844       71.40943
H        102.75978       77.78292       71.37765
H        102.85652       76.86778       68.72720
H        101.89190       75.60920       69.61005
N        104.76501       75.04845       69.48177
C        104.54595       74.71358       68.08228
C        105.43553       75.57588       67.20483
O        106.62249       75.70237       67.47256
C        104.71701       73.19690       67.84260
C        106.06422       72.58756       68.15752
O        107.09461       73.31887       68.62180
O        106.22203       71.38956       67.98842
H        105.65128       74.75350       69.91625
H        103.49602       74.92222       67.78654
H        104.48970       72.98916       66.77415
H        103.95668       72.67068       68.46050
N        104.90638       76.21833       66.12670
C        105.66791       77.12534       65.28961
C        105.87592       78.43829       65.99841
O        107.00734       78.86396       66.17876
H        103.92123       76.04899       65.87157
H        105.07693       77.35492       64.37653
H        106.62090       76.65164       64.96621
N        104.78346       79.14503       66.40226
C        104.82554       80.45902       67.02989
C        104.22322       80.33994       68.41861
O        103.14747       79.77115       68.54259
C        104.03582       81.47228       66.16637
C        104.54256       81.49128       64.71346
O        104.17370       82.75172       66.73075
H        103.85120       78.73487       66.23248
H        105.87171       80.83219       67.10686
H        102.96023       81.17981       66.15826
H        103.54992       83.35338       66.24617
H        105.61980       81.75698       64.67275
H        104.39726       80.49888       64.23511
H        103.96671       82.23173       64.11856
N        104.85765       80.85545       69.51151
C        104.38817       80.65356       70.88204
C        103.70351       81.92838       71.36121
O        104.19698       82.61435       72.24514
C        105.56541       80.15176       71.78151
C        106.27212       78.93266       71.12134
C        105.04071       79.78287       73.18672
C        107.47275       78.39470       71.90470
H        105.71621       81.41087       69.37210
H        103.61065       79.86458       70.90840
H        106.31541       80.96841       71.87616
H        106.65934       79.22718       70.12273
H        105.54443       78.11307       70.97123
H        105.86914       79.49160       73.86210
H        104.53583       80.63938       73.67349
H        104.31651       78.94241       73.12267
H        107.16854       77.98207       72.88731
H        107.94299       77.56665       71.33247
H        108.22786       79.19516       72.05364
N        102.53187       82.29681       70.76801
C        101.79314       83.52795       71.04712
C        100.33876       83.26909       71.47884
O         99.58641       84.22625       71.58776
C        101.84129       84.41730       69.77804
C        101.18580       83.77058       68.54538
O        103.18352       84.71325       69.48746
H        102.15485       81.67402       70.03971
H        102.28074       84.10737       71.86234
H        101.30017       85.36311       70.01493
H        103.18599       85.53196       68.92643
H        101.71987       82.84999       68.23297
H        100.12491       83.52163       68.74713
H        101.22019       84.47851       67.69193
N         99.87864       82.00873       71.73699
C         98.49888       81.62943       72.07201
C         97.54650       81.88437       70.88930
O         97.96960       82.46464       69.89960
C         98.05081       82.29432       73.41168
C         99.01169       81.95998       74.56841
O         96.74892       81.91124       73.77046
H        100.56139       81.25553       71.71472
H         98.49299       80.52903       72.23400
H         98.04167       83.39631       73.29503
H         96.77651       80.94644       73.99910
H        100.03970       82.31650       74.35193
H         98.66288       82.45227       75.50146
H         99.04527       80.86266       74.74432
N         96.24622       81.45075       70.91429
C         95.26984       81.70814       69.85411
C         94.62925       80.44132       69.25588
O         93.67156       80.58970       68.50877
C         94.18418       82.66987       70.39213
C         93.32274       82.10437       71.53551
C         92.22760       83.10955       71.91519
C         91.33161       82.57018       73.03627
N         90.26752       83.52314       73.35280
H         95.90387       80.95701       71.74378
H         95.74470       82.25072       69.00783
H         93.51520       82.94137       69.54563
H         94.67684       83.60577       70.73798
H         93.95243       81.89541       72.42624
H         92.84039       81.15853       71.20684
H         91.59864       83.31308       71.02050
H         92.69516       84.06318       72.24607
H         91.94457       82.38361       73.94604
H         90.87411       81.60772       72.71588
H         89.66842       83.68448       72.51029
H         89.67269       83.13249       74.11859
H         90.67803       84.43112       73.67071
N         95.11201       79.18032       69.47055
C         94.48805       77.98792       68.88305
C         93.18484       77.66245       69.57790
O         93.18790       77.42835       70.77811
C         95.43735       76.76923       68.94889
C         94.84070       75.43364       68.43631
C         94.10961       75.48620       67.10671
O         94.70446       75.88324       65.96242
O         92.93823       75.14535       67.06483
H         95.97950       79.06955       70.00762
H         94.31400       78.17046       67.79895
H         95.78621       76.60349       69.99185
H         96.32594       77.01116       68.35016
H         94.12004       75.06920       69.20091
H         95.66162       74.68652       68.37845
N         92.03186       77.56787       68.86216
C         90.78536       77.15413       69.46651
H         89.98565       77.11958       68.69653
H         90.89880       76.13518       69.89738
H         90.49129       77.86541       70.26553
H         92.04275       77.75836       67.84874
Ca        96.81724       76.59557       65.91228
O         95.56661       78.75330       64.08139
H         95.27794       78.80473       65.02739
H         95.15800       77.91735       63.74217
O         99.61249       78.20542       64.15701
H        100.39022       78.32120       63.55518
H         99.67477       78.96317       64.79140
O         97.53700       76.38405       62.31967
H         97.32428       77.21682       61.82791
H         97.04578       75.67575       61.83227

Ca 1.0



