%chk=apoCaM-CA-Ng.loop4.water7.frame722.chk
%nprocshared=20
%mem=10GB
%nosave
#b3lyp/svp scf=(tight,noincore,xqc) Test 
#IOP(5/87=12) Density=Current Pop=(MK,readradii) iop(6/33=2) iop(6/42=6)

apoCaM-CA-Ng.loop4.water7.frame722 

   -3  1 
C         97.50208       93.02484      -14.29460
C         98.33980       92.53753      -15.43980
O         97.79209       92.26907      -16.49711
H         96.74873       92.25438      -14.03180
H         98.12279       93.23367      -13.39755
H         96.98130       93.96057      -14.58764
N         99.69129       92.42876      -15.30853
C        100.59193       91.98142      -16.36462
C        100.43611       92.82727      -17.61380
O        100.32477       92.27772      -18.70364
C        100.41424       90.47195      -16.66084
C        100.72527       89.62774      -15.46020
O         99.78854       88.81037      -14.94951
O        101.83720       89.65861      -14.95756
H        100.12331       92.70920      -14.41496
H        101.63423       92.13548      -16.00710
H        101.10881       90.16357      -17.47267
H         99.37587       90.26849      -17.00365
N        100.40907       94.18930      -17.53224
C        100.32253       95.01179      -18.73439
C        101.68223       95.01992      -19.41878
O        102.66844       94.76388      -18.73954
C         99.72272       96.43178      -18.45732
C        100.55496       97.37411      -17.54470
C         98.31621       96.26830      -17.84770
C        101.82885       97.93058      -18.18481
H        100.43772       94.63403      -16.60380
H         99.58947       94.50775      -19.40327
H         99.57951       96.95563      -19.42692
H        100.79017       96.88971      -16.57450
H         99.93262       98.27015      -17.32698
H         98.35921       95.79011      -16.84657
H         97.82102       97.25736      -17.73992
H         97.68039       95.64227      -18.50541
H        102.59018       97.15884      -18.37326
H        101.58405       98.44624      -19.13814
H        102.28933       98.66847      -17.49524
N        101.86368       95.22027      -20.75306
C        100.79903       95.32118      -21.73760
C        100.51754       93.94892      -22.32450
O         99.35483       93.58210      -22.42013
C        101.06995       96.42856      -22.78808
C        102.30404       96.33031      -23.65672
O        103.19485       95.33161      -23.54091
O        102.50583       97.19956      -24.48908
H        102.83037       95.13810      -21.10038
H         99.85247       95.64954      -21.26339
H        101.12838       97.39863      -22.24784
H        100.18950       96.47064      -23.46671
N        101.52865       93.09447      -22.65139
C        101.31352       91.77263      -23.20203
C        100.72758       91.87022      -24.58233
O        101.31864       92.53116      -25.42586
H        102.50467       93.36247      -22.47899
H        100.67928       91.16883      -22.51662
H        102.29589       91.26076      -23.29466
N         99.58190       91.20675      -24.90226
C         99.02835       91.23844      -26.25148
C         98.51241       92.61312      -26.65745
O         98.21402       92.78192      -27.83046
C         97.93789       90.15681      -26.45027
C         96.69008       90.34579      -25.62225
O         96.74375       90.34489      -24.27689
O         95.60717       90.45783      -26.17435
H         99.14924       90.61020      -24.18346
H         99.85766       90.97002      -26.94423
H         98.37200       89.16361      -26.20843
H         97.65212       90.14252      -27.52612
N         98.36201       93.63945      -25.76606
C         97.85194       94.94615      -26.15228
C         96.40302       94.92118      -26.60573
O         95.92436       95.95809      -27.04048
H         98.61663       93.50813      -24.78064
H         98.49309       95.34971      -26.96529
H         97.91789       95.64351      -25.28783
N         95.63253       93.79387      -26.51402
C         94.24235       93.69950      -26.94981
C         93.31376       94.58385      -26.12643
O         92.15322       94.71778      -26.49070
C         94.11570       93.91713      -28.47656
C         95.04813       92.95412      -29.23936
C         94.88973       92.98371      -30.73666
N         95.68576       92.20242      -31.50378
O         94.05092       93.69833      -31.26543
H         96.03211       92.94322      -26.10721
H         93.89054       92.65868      -26.76966
H         94.35254       94.96452      -28.75924
H         93.06328       93.70706      -28.76924
H         94.86396       91.91135      -28.90042
H         96.09661       93.22393      -29.01043
H         96.40113       91.59799      -31.07160
H         95.59220       92.20156      -32.52996
N         93.73148       95.13373      -24.94727
C         92.88347       95.92500      -24.06253
C         92.59993       95.18949      -22.75435
O         91.58106       95.47882      -22.14437
C         93.50586       97.32389      -23.78886
C         94.90965       97.23597      -23.16027
C         93.57447       98.15959      -25.07217
H         94.68975       94.94677      -24.63315
H         91.88861       96.08226      -24.53760
H         92.84256       97.86140      -23.07502
H         95.28230       98.24917      -22.90287
H         94.87919       96.63687      -22.23400
H         95.64522       96.77599      -23.85282
H         93.98425       99.16803      -24.84835
H         94.22556       97.67377      -25.82827
H         92.55827       98.28620      -25.50063
N         93.45442       94.24656      -22.25314
C         93.21278       93.50017      -21.02298
C         93.17601       92.00671      -21.32454
O         93.28500       91.61150      -22.47521
C         94.29135       93.85969      -19.98192
C         94.17906       95.30767      -19.56711
N         95.20471       96.16730      -19.75615
O         93.14796       95.70591      -19.04458
H         94.33274       94.03697      -22.74202
H         92.22102       93.75420      -20.58584
H         95.29719       93.63632      -20.39798
H         94.16309       93.25732      -19.05908
H         96.07889       95.85474      -20.20105
H         95.11903       97.15364      -19.46843
N         92.93966       91.12359      -20.31294
C         92.62884       89.71115      -20.54849
C         91.70148       89.19033      -19.45912
O         91.44985       89.90524      -18.50263
C         93.89759       88.83846      -20.71233
C         94.68220       88.62367      -19.43240
C         95.30133       89.69374      -18.76586
C         94.80832       87.32574      -18.89753
C         96.01796       89.46916      -17.58641
C         95.52972       87.10678      -17.72024
C         96.13417       88.17730      -17.05936
O         96.82023       87.95531      -15.92084
H         92.81143       91.52069      -19.37422
H         92.04185       89.65313      -21.49166
H         94.56223       89.27097      -21.49075
H         93.56572       87.84764      -21.09278
H         95.23655       90.70053      -19.15407
H         94.34705       86.47806      -19.38833
H         96.48405       90.29779      -17.08110
H         95.61667       86.10424      -17.31963
H         97.23502       88.67377      -15.42317
N         91.10691       87.96584      -19.56149
C         90.17934       87.48640      -18.54473
C         90.64176       86.13903      -18.01777
O         90.36767       85.14246      -18.67136
C         88.75394       87.43326      -19.13072
C         87.70163       87.09715      -18.06302
C         86.32198       87.08820      -18.65386
O         85.38914       87.94889      -18.20347
O         86.03578       86.29614      -19.53765
H         91.28213       87.38286      -20.39280
H         90.11762       88.20577      -17.71579
H         88.71361       86.69788      -19.96443
H         88.51061       88.43666      -19.54782
H         87.74686       87.86232      -17.25651
H         87.90537       86.10180      -17.61540
N         91.39301       85.98506      -16.88571
C         91.93646       87.06418      -16.06359
C         90.85649       87.84790      -15.34009
O         90.05500       87.25862      -14.62768
C         92.92107       86.48803      -15.01999
C         93.62331       87.61083      -14.23327
C         94.61648       87.11928      -13.22122
O         94.81864       85.92751      -13.04675
O         95.28810       88.02944      -12.49147
H         91.66205       85.01802      -16.64127
H         92.53186       87.73517      -16.72272
H         93.69706       85.89472      -15.55211
H         92.38084       85.81125      -14.32068
H         92.87137       88.21783      -13.68713
H         94.15700       88.27197      -14.94816
N         90.82823       89.20619      -15.43418
C         89.87384       90.01723      -14.71397
H         88.84057       89.75897      -15.02475
H         89.99166       89.85441      -13.62129
H         90.05708       91.09208      -14.92961
H         91.53136       89.68929      -16.01157
Ca        96.79805       87.49750      -10.90073
O         98.11056       86.20520      -13.27016
H         98.84964       86.69927      -13.70368
H         97.38026       86.21966      -13.93717
O         96.00698       84.75087       -9.86882
H         95.32093       85.14718      -10.46255
H         96.57572       84.21107      -10.47330
O         95.74847       90.78793      -11.88201
H         94.91267       90.61627      -11.37951
H         96.18108       91.53622      -11.39992
O         98.83945       90.00037      -11.81950
H         99.82417       90.09874      -11.79027
H         98.66884       89.41601      -12.59971
O         99.86650       86.97277      -10.52955
H        100.11834       87.18342      -11.46352
H         99.84514       85.98336      -10.49486
O         98.12252       89.97612       -8.92425
H         97.63513       90.00586       -8.06310
H         99.07668       90.06262       -8.67387
O         97.41584       87.07711       -7.86612
H         96.91592       86.37896       -7.37356
H         98.24868       86.62798       -8.15752

Ca 1.0



