%chk=apoCaM-CA-Ng.loop4.water4.frame857.chk
%nprocshared=20
%mem=10GB
%nosave
#b3lyp/svp scf=(tight,noincore,xqc) Test 
#IOP(5/87=12) Density=Current Pop=(MK,readradii) iop(6/33=2) iop(6/42=6)

apoCaM-CA-Ng.loop4.water4.frame857 

   -3  1 
C         63.34015       91.69375      -12.00598
C         63.63283       93.01757      -12.64372
O         64.47904       93.08183      -13.52399
H         62.27339       91.43224      -12.16904
H         63.96675       90.89715      -12.45526
H         63.54413       91.74659      -10.91637
N         62.93728       94.12483      -12.25625
C         63.10479       95.44848      -12.84628
C         62.79280       95.37215      -14.33400
O         63.62881       95.68913      -15.16935
C         64.50116       96.01764      -12.50957
C         64.63954       97.45210      -12.93860
O         63.81004       98.38929      -12.43988
O         65.51295       97.77743      -13.72641
H         62.21868       94.01839      -11.52318
H         62.35517       96.12489      -12.37611
H         65.29724       95.40181      -12.97904
H         64.64507       95.98296      -11.40764
N         61.57851       94.89393      -14.71778
C         61.18949       94.67427      -16.10826
C         61.15447       95.99298      -16.87993
O         60.62889       96.95146      -16.33066
C         59.81159       93.92978      -16.20169
C         58.62056       94.75498      -15.63115
C         59.92061       92.53893      -15.53911
C         57.26246       94.06484      -15.77498
H         60.92220       94.63409      -13.96788
H         61.93091       93.98590      -16.54903
H         59.60803       93.75039      -17.27867
H         58.53906       95.70895      -16.18977
H         58.77679       94.99171      -14.55843
H         60.76896       91.97181      -15.97728
H         60.07443       92.61329      -14.44298
H         59.00923       91.93559      -15.72129
H         57.06175       93.82201      -16.83981
H         57.21248       93.14042      -15.16503
H         56.46428       94.74557      -15.40983
N         61.59445       96.15769      -18.16726
C         62.19251       95.15575      -19.04565
C         63.37088       95.79929      -19.77021
O         63.28414       96.04223      -20.96732
C         61.10836       94.65995      -20.03187
C         61.57566       93.53615      -20.92719
O         60.80139       93.05475      -21.73802
O         62.82676       93.04030      -20.83771
H         61.40895       97.07789      -18.59946
H         62.54798       94.26425      -18.49978
H         60.74892       95.50715      -20.65572
H         60.24514       94.27549      -19.45050
N         64.50962       96.11604      -19.09473
C         65.61898       96.83452      -19.70779
C         66.83311       95.95729      -19.86839
O         67.31803       95.82044      -20.98314
H         64.58763       95.85100      -18.10093
H         65.86605       97.71103      -19.07214
H         65.34416       97.22910      -20.71042
N         67.38714       95.33378      -18.79498
C         68.58667       94.50567      -18.88166
C         68.45002       93.39908      -19.91820
O         69.31039       93.29146      -20.78132
C         68.99578       93.96019      -17.48759
C         68.00769       93.03552      -16.81749
O         66.75698       93.44624      -16.53443
O         68.35969       91.92060      -16.46800
H         66.94349       95.47707      -17.87681
H         69.43152       95.15571      -19.20372
H         69.15746       94.82628      -16.81111
H         69.96967       93.43048      -17.59078
N         67.38593       92.55369      -19.91006
C         67.25128       91.42645      -20.81897
C         68.32201       90.39785      -20.54699
O         68.87851       89.83867      -21.47990
H         66.63935       92.69580      -19.21409
H         67.24937       91.75111      -21.88369
H         66.27527       90.93764      -20.61226
N         68.64880       90.11322      -19.25288
C         69.61341       89.12622      -18.78202
C         69.05116       87.71415      -18.82072
O         69.69166       86.82238      -18.28214
C         70.99873       89.24357      -19.45856
C         71.56419       90.67392      -19.38192
C         72.94255       90.80630      -19.98464
N         73.54177       92.01874      -20.02430
O         73.52398       89.83177      -20.44034
H         68.17586       90.65279      -18.51852
H         69.76131       89.33248      -17.69690
H         70.93847       88.93054      -20.52193
H         71.69826       88.54890      -18.94323
H         71.61071       91.00016      -18.32092
H         70.88968       91.35906      -19.93369
H         73.06391       92.85291      -19.65242
H         74.48203       92.12657      -20.43294
N         67.83825       87.43619      -19.38336
C         67.20252       86.12912      -19.29142
C         66.84324       85.84529      -17.84196
O         67.15834       84.77027      -17.35026
C         65.95983       86.00600      -20.23273
C         64.78432       86.94193      -19.89666
C         66.37731       86.20699      -21.70030
H         67.32092       88.17895      -19.86250
H         67.91315       85.35045      -19.65171
H         65.58041       84.96344      -20.14222
H         64.38453       86.72914      -18.88609
H         65.07244       88.01088      -19.96227
H         63.94960       86.76561      -20.60827
H         67.18231       85.49225      -21.97407
H         65.51397       86.02392      -22.37452
H         66.74419       87.23916      -21.88184
N         66.21768       86.79838      -17.08904
C         65.79935       86.61136      -15.70488
C         66.62437       87.51451      -14.79524
O         67.33393       88.38168      -15.29150
C         64.27531       86.90352      -15.65670
C         63.57085       86.69717      -14.33651
N         62.58981       85.77027      -14.22060
O         63.84424       87.40285      -13.37825
H         66.03160       87.72005      -17.51609
H         65.98911       85.56052      -15.39385
H         63.79905       86.24033      -16.41165
H         64.09250       87.95212      -15.98036
H         62.31846       85.17970      -15.02051
H         62.08916       85.64689      -13.32817
N         66.63544       87.31801      -13.44639
C         67.40708       88.14483      -12.52002
C         67.30861       87.58830      -11.11280
O         66.20015       87.30666      -10.67219
C         66.89171       89.60262      -12.49612
C         67.78936       90.45535      -11.62757
C         67.31395       91.02316      -10.43416
C         69.12794       90.66669      -12.00237
C         68.16988       91.77859       -9.62461
C         69.97874       91.42298      -11.19488
C         69.50650       91.97842      -10.00273
O         70.34519       92.69829       -9.23086
H         66.09916       86.51938      -13.07224
H         68.47065       88.13587      -12.84370
H         65.84970       89.59841      -12.11113
H         66.87270       90.05152      -13.50983
H         66.28838       90.86991      -10.12340
H         69.51545       90.24110      -12.91965
H         67.79639       92.20419       -8.70238
H         71.00826       91.57226      -11.49560
H         70.06346       93.09519       -8.39468
N         68.41757       87.46961      -10.32404
C         68.35768       86.93121       -8.97348
C         68.66831       88.02236       -7.94570
O         69.83155       88.38452       -7.83238
C         69.34600       85.74894       -8.86198
C         69.29636       85.03714       -7.50320
C         70.30969       83.93012       -7.44951
O         71.62194       84.20866       -7.57447
O         69.95178       82.77536       -7.28210
H         69.32988       87.78938      -10.68585
H         67.35458       86.52027       -8.80436
H         70.37767       86.12561       -9.04479
H         69.10778       85.00733       -9.65610
H         68.27913       84.61794       -7.35003
H         69.51845       85.75006       -6.68087
N         67.72109       88.62804       -7.15722
C         66.27290       88.46209       -7.30435
C         65.79938       87.05386       -7.00656
O         66.53419       86.26320       -6.43189
C         65.48227       89.42778       -6.38702
C         65.74770       90.91617       -6.66041
C         64.87836       91.76461       -5.77582
O         64.98323       91.69879       -4.56079
O         63.96457       92.58954       -6.32116
H         68.06137       89.32456       -6.47695
H         66.02487       88.69975       -8.36204
H         65.71846       89.19732       -5.32383
H         64.39384       89.25577       -6.54374
H         65.51160       91.13994       -7.72221
H         66.80829       91.17944       -6.46989
N         64.56278       86.66698       -7.42480
C         64.06808       85.32213       -7.24194
H         63.05518       85.23101       -7.68969
H         64.74314       84.60155       -7.75193
H         64.00852       85.08123       -6.16079
H         63.96255       87.34145       -7.92420
Ca        62.57261       93.76975       -4.98910
O         59.56523       93.87782       -3.96277
H         59.49178       94.28094       -3.06137
H         59.13461       92.99058       -3.87427
O         62.13245       92.81988       -1.97647
H         61.61816       93.47678       -1.44311
H         62.12657       91.99523       -1.42847
O         62.22222       96.29437       -3.23586
H         63.05110       96.82725       -3.13876
H         61.82092       96.29028       -2.33084
O         63.84464       96.28265       -6.12464
H         64.33033       96.95458       -5.58349
H         63.95825       96.58511       -7.06038

Ca 1.0



