%chk=apoCaM-CA-Ng.loop4.water6.frame555.chk
%nprocshared=20
%mem=10GB
%nosave
#b3lyp/svp scf=(tight,noincore,xqc) Test 
#IOP(5/87=12) Density=Current Pop=(MK,readradii) iop(6/33=2) iop(6/42=6)

apoCaM-CA-Ng.loop4.water6.frame555 

   -3  1 
C         47.07014       18.60027       68.44557
C         46.07732       17.67614       67.80798
O         45.78900       16.63440       68.37133
H         47.94040       18.73345       67.76947
H         46.59561       19.58581       68.63405
H         47.42954       18.18615       69.41219
N         45.50373       18.00530       66.61610
C         44.55262       17.17326       65.87237
C         43.19864       16.99840       66.55894
O         42.32789       16.38787       65.95279
C         45.15917       15.78826       65.54423
C         46.54201       15.91168       64.97484
O         47.57554       15.39333       65.66476
O         46.73815       16.51299       63.93138
H         45.78981       18.89368       66.17607
H         44.35426       17.69614       64.90970
H         44.50567       15.23794       64.83334
H         45.22153       15.18067       66.47223
N         42.93736       17.47748       67.81166
C         41.65230       17.27701       68.48229
C         40.56260       18.06954       67.76235
O         40.91305       18.98911       67.03447
C         41.75365       17.63424       70.00576
C         42.08036       19.13870       70.24427
C         42.77457       16.69632       70.68202
C         42.26070       19.51182       71.71745
H         43.67599       17.96864       68.31761
H         41.42711       16.19499       68.40792
H         40.78062       17.42440       70.49109
H         41.24643       19.74802       69.83500
H         43.00965       19.44528       69.72497
H         42.77573       16.82562       71.78297
H         42.49542       15.64063       70.48756
H         43.80441       16.86733       70.30840
H         43.15712       19.01317       72.14298
H         42.42820       20.60641       71.80215
H         41.36365       19.23552       72.30850
N         39.22382       17.81266       67.86438
C         38.59483       16.71696       68.60143
C         38.99817       15.37168       68.02905
O         39.45998       14.51546       68.77042
C         37.05282       16.81917       68.50631
C         36.53104       18.10952       69.07363
O         35.89877       18.87842       68.36654
O         36.74856       18.41950       70.36552
H         38.60024       18.44575       67.33786
H         38.85766       16.77212       69.67696
H         36.59016       15.97998       69.07094
H         36.73170       16.73423       67.44391
N         38.83017       15.12090       66.70075
C         39.09207       13.83795       66.07743
C         38.07460       12.81515       66.52172
O         36.88593       13.07893       66.40128
H         38.49186       15.88016       66.09055
H         40.13905       13.51467       66.26889
H         38.96922       13.95300       64.97912
N         38.46351       11.60033       66.99980
C         37.50459       10.56233       67.37876
C         36.70136       10.88740       68.64036
O         35.82696       10.09953       68.97611
C         38.20068        9.18348       67.50965
C         39.31176        9.09265       68.52716
O         39.87632        8.02400       68.69606
O         39.71973       10.16745       69.22886
H         39.47229       11.38759       67.01564
H         36.77733       10.44961       66.54296
H         38.63110        8.91176       66.52126
H         37.42983        8.42022       67.75659
N         36.92330       12.00464       69.39606
C         36.17029       12.30341       70.60876
C         36.47726       11.37037       71.76981
O         35.89478       11.55524       72.82764
H         37.63561       12.68699       69.10921
H         35.08305       12.29431       70.37959
H         36.43886       13.32726       70.94987
N         37.40725       10.37936       71.66502
C         37.84449        9.50122       72.73954
C         38.49660       10.30867       73.85653
O         38.26304       10.02374       75.02304
C         36.70692        8.58010       73.24611
C         35.98967        7.83314       72.10558
C         34.90981        6.89749       72.60090
N         34.14974        6.21710       71.71209
O         34.71081        6.74953       73.79852
H         37.89208       10.24177       70.77604
H         38.63890        8.84836       72.31025
H         35.95049        9.18260       73.79360
H         37.14359        7.84133       73.95446
H         36.72557        7.24560       71.51626
H         35.51041        8.57880       71.43531
H         34.29331        6.33490       70.69846
H         33.40930        5.57738       72.03721
N         39.30738       11.36797       73.55455
C         39.96320       12.19763       74.56547
C         41.46214       12.31994       74.34301
O         42.08789       12.96915       75.17265
C         39.36598       13.64020       74.59630
C         39.48956       14.37093       73.24507
C         37.91268       13.64806       75.07536
H         39.42886       11.62325       72.56375
H         39.82582       11.75304       75.57590
H         39.93605       14.22999       75.34979
H         38.88048       13.87400       72.46155
H         39.13580       15.41881       73.34643
H         40.54737       14.40660       72.90840
H         37.84186       13.18022       76.08061
H         37.55164       14.69608       75.16170
H         37.25751       13.10119       74.37145
N         42.11307       11.79864       73.25816
C         43.51173       12.11664       72.98327
C         44.37810       10.86937       73.08784
O         43.85066        9.78150       73.28157
C         43.59240       12.79773       71.59272
C         44.79871       13.68192       71.35647
N         45.02309       14.19813       70.13004
O         45.55167       13.98349       72.26958
H         41.61042       11.21551       72.57277
H         43.87712       12.83647       73.74489
H         42.71913       13.47328       71.46604
H         43.51633       12.01145       70.80970
H         44.39662       13.98696       69.33983
H         45.83753       14.80777       69.97786
N         45.73395       10.97060       73.03758
C         46.64577        9.85582       73.23069
C         48.06962       10.38746       73.29365
O         48.53237       10.95818       72.31597
C         46.55418        8.82030       72.08857
C         47.53295        7.70607       72.36743
C         48.69209        7.56512       71.58768
C         47.32078        6.83907       73.45160
C         49.63384        6.58195       71.90145
C         48.25786        5.85029       73.75663
C         49.42040        5.72266       72.98978
O         50.32677        4.77898       73.31239
H         46.14946       11.90015       72.93712
H         46.39052        9.37184       74.19935
H         46.80492        9.33515       71.13395
H         45.53422        8.39723       71.97793
H         48.88231        8.23460       70.75771
H         46.43364        6.93651       74.06551
H         50.53360        6.49758       71.30572
H         48.08505        5.19205       74.59851
H         51.15289        4.67122       72.82028
N         48.81096       10.24972       74.42493
C         50.17111       10.76392       74.54243
C         51.12973        9.89420       73.74060
O         51.24573        8.72441       74.08126
C         50.61613       10.75560       76.02149
C         49.74449       11.67918       76.88786
C         50.16098       11.61545       78.32731
O         50.08776       10.56299       78.94235
O         50.59813       12.72378       78.95372
H         48.37141        9.79585       75.24031
H         50.18003       11.81631       74.20296
H         51.67151       11.10177       76.09010
H         50.56195        9.71499       76.41519
H         48.67516       11.38704       76.83052
H         49.84098       12.72190       76.51500
N         51.86122       10.32677       72.66999
C         51.79333       11.64549       72.04703
C         52.28914       12.75961       72.94727
O         53.42049       12.70669       73.41022
C         52.62460       11.64935       70.73806
C         52.51890       12.97197       69.95516
C         51.09837       13.27855       69.58306
O         50.46632       12.50955       68.87747
O         50.50780       14.39125       70.05496
H         52.47205        9.62422       72.22152
H         50.74292       11.83222       71.75428
H         52.26717       10.82529       70.08170
H         53.69529       11.45692       70.97095
H         53.12697       12.90419       69.02832
H         52.92778       13.80486       70.56687
N         51.50741       13.85575       73.15520
C         51.97425       15.01605       73.87907
H         52.87176       15.43416       73.37277
H         51.18529       15.79885       73.88235
H         52.22417       14.74510       74.92463
H         50.56283       13.89321       72.74282
Ca        49.74632       15.76061       65.17955
O         52.52551       14.61557       66.29789
H         53.13542       15.11386       65.69762
H         52.70242       13.66233       66.09736
O         49.62291       12.66518       65.93413
H         49.93320       11.72623       65.98204
H         48.95074       12.74265       66.65645
O         48.15585       14.92725       68.30343
H         48.15754       14.08600       68.82361
H         48.24361       15.64383       68.98022
O         49.89440       17.83838       63.08846
H         49.74461       17.64957       62.12856
H         48.98606       17.85674       63.48158
O         50.89337       16.67916       68.13799
H         50.56998       16.83309       69.06098
H         51.86347       16.87154       68.18136
O         50.57566       13.80414       63.15195
H         51.09181       14.61335       62.90811
H         51.21388       13.24975       63.66727

Ca 1.0



