%chk=apoCaM-CA-Ng.loop3.water3.frame933.chk
%nprocshared=20
%mem=10GB
%nosave
#b3lyp/svp scf=(tight,noincore,xqc) Test 
#IOP(5/87=12) Density=Current Pop=(MK,readradii) iop(6/33=2) iop(6/42=6)

apoCaM-CA-Ng.loop3.water3.frame933 

   0  1 
C        -24.07588       -7.62095       81.76056
C        -25.46606       -8.02398       82.15703
O        -25.98810       -8.97631       81.59479
H        -23.38428       -8.47313       81.93329
H        -24.05427       -7.34466       80.68707
H        -23.71679       -6.75806       82.36051
N        -26.11674       -7.36531       83.15630
C        -27.42178       -7.79213       83.65449
C        -28.51590       -7.53092       82.60893
O        -28.29316       -6.69086       81.74773
C        -27.72072       -7.04990       84.98453
C        -28.51552       -7.86507       85.95990
O        -28.05143       -8.06084       87.20694
O        -29.56602       -8.37218       85.63856
H        -25.62387       -6.59006       83.62608
H        -27.32223       -8.86829       83.86894
H        -28.19801       -6.06884       84.77073
H        -26.77159       -6.83940       85.52440
N        -29.72136       -8.18442       82.62587
C        -30.82197       -7.86165       81.70184
C        -32.07768       -7.36532       82.43267
O        -33.01806       -6.95325       81.76758
C        -31.11059       -9.05151       80.76057
C        -31.78892      -10.25114       81.44642
C        -31.95249      -11.46842       80.51702
C        -30.60600      -12.13299       80.17830
N        -30.79525      -13.34100       79.37710
H        -29.86155       -8.93625       83.31233
H        -30.50591       -7.02447       81.04345
H        -30.14018       -9.34305       80.31054
H        -31.77753       -8.71431       79.93612
H        -32.80102       -9.92973       81.77677
H        -31.22076      -10.56503       82.34047
H        -32.48813      -11.17420       79.58741
H        -32.57505      -12.21903       81.05083
H        -30.09787      -12.41080       81.12643
H        -29.95146      -11.43339       79.61838
H        -31.36843      -14.03776       79.90635
H        -31.26502      -13.10585       78.47343
H        -29.85970      -13.76116       79.17165
N        -32.14325       -7.34336       83.79500
C        -33.22196       -6.77121       84.59186
C        -32.64039       -5.60518       85.38663
O        -33.10488       -4.48696       85.22065
C        -33.91966       -7.84133       85.47564
C        -33.03069       -8.59948       86.42599
O        -32.04909       -9.38875       85.95505
O        -33.22011       -8.53353       87.62915
H        -31.35124       -7.70687       84.31750
H        -34.02039       -6.36534       83.93107
H        -34.40557       -8.59050       84.81436
H        -34.72218       -7.33472       86.05643
N        -31.55398       -5.78728       86.19291
C        -30.80966       -4.71712       86.83710
C        -30.61097       -4.94468       88.31957
O        -29.84802       -4.19740       88.91587
H        -31.16784       -6.72950       86.29960
H        -31.26764       -3.71988       86.66635
H        -29.79874       -4.71053       86.37575
N        -31.26297       -5.93590       88.98907
C        -31.08832       -6.20887       90.41031
C        -30.75012       -7.67754       90.65444
O        -30.71661       -8.46887       89.72249
C        -32.34752       -5.73360       91.17737
C        -33.66090       -6.13423       90.54130
N        -34.01217       -7.42965       90.38421
O        -34.41958       -5.25774       90.15215
H        -31.95496       -6.50684       88.48683
H        -30.23032       -5.63198       90.82212
H        -32.31814       -4.62062       91.18394
H        -32.31507       -6.05991       92.23762
H        -33.39702       -8.19134       90.69749
H        -34.90856       -7.66936       89.93416
N        -30.46545       -8.09535       91.91944
C        -30.14684       -9.46367       92.29843
C        -28.85380       -9.96972       91.69435
O        -27.85269       -9.27028       91.76194
H        -30.48834       -7.39978       92.68075
H        -30.99760      -10.13999       92.07056
H        -30.00526       -9.47921       93.40097
N        -28.77824      -11.23722       91.19059
C        -27.52439      -11.83542       90.72634
C        -27.08535      -11.26406       89.38525
O        -27.78616      -10.43757       88.82513
C        -27.66845      -13.37399       90.58489
C        -28.05185      -14.08456       91.86178
C        -29.16613      -14.94007       91.87911
C        -27.28301      -13.93949       93.03109
C        -29.50189      -15.64166       93.04027
C        -27.62908      -14.63230       94.19527
C        -28.73408      -15.48926       94.20331
O        -29.04326      -16.16488       95.32834
H        -29.62176      -11.82942       91.23316
H        -26.73212      -11.63601       91.47939
H        -26.69663      -13.81207       90.28106
H        -28.40089      -13.60210       89.77886
H        -29.76527      -15.08128       90.98816
H        -26.41408      -13.29493       93.04692
H        -30.35484      -16.30832       93.03194
H        -27.03107      -14.51013       95.08981
H        -29.78949      -16.77988       95.37017
N        -25.93269      -11.72192       88.79977
C        -25.44404      -11.36778       87.46948
C        -26.44357      -11.77590       86.39765
O        -27.49497      -11.15544       86.29920
C        -25.04535       -9.86152       87.37466
C        -24.67102       -9.40540       85.93689
C        -23.91766       -9.53270       88.36704
C        -23.52860      -10.17925       85.27784
H        -25.36029      -12.40377       89.31633
H        -24.51801      -11.96096       87.29667
H        -25.91448       -9.24180       87.66611
H        -24.40831       -8.32480       85.95641
H        -25.56095       -9.50577       85.28457
H        -24.23402       -9.76340       89.40593
H        -23.00210      -10.11822       88.14347
H        -23.67065       -8.45023       88.32127
H        -22.58976      -10.08293       85.85784
H        -23.79001      -11.25112       85.16774
H        -23.35501       -9.76914       84.26051
N        -26.16902      -12.79804       85.52981
C        -27.02842      -13.09176       84.38769
C        -26.63574      -14.36452       83.65889
O        -25.48672      -14.49706       83.25372
C        -26.93849      -11.93613       83.37632
O        -27.79749      -12.17050       82.29534
H        -25.31192      -13.35711       85.66789
H        -28.08025      -13.18898       84.73798
H        -25.89177      -11.83536       83.00857
H        -27.23317      -11.00119       83.87571
H        -27.83063      -11.32366       81.77872
N        -27.59514      -15.28204       83.34252
C        -27.37766      -16.40965       82.43980
C        -28.16851      -16.15459       81.15241
O        -29.11614      -15.38071       81.21254
C        -27.82130      -17.70078       83.13017
H        -28.56132      -15.11492       83.66991
H        -26.29939      -16.48514       82.19729
H        -28.90619      -17.65668       83.37026
H        -27.63395      -18.58348       82.49273
H        -27.25436      -17.83784       84.07500
N        -27.83854      -16.65182       79.92116
C        -26.73294      -17.55989       79.62245
C        -27.14093      -18.99566       79.90968
O        -28.32508      -19.23930       80.09567
C        -26.37268      -17.41651       78.13124
H        -28.40733      -16.32022       79.12500
H        -25.84497      -17.26676       80.21648
H        -26.07251      -16.36716       77.92459
H        -25.54128      -18.06931       77.81125
H        -27.24920      -17.66578       77.49566
N        -26.25112      -20.02764       79.98678
C        -24.79976      -19.90034       79.95249
C        -24.28684      -19.67305       81.35770
O        -23.54809      -18.71933       81.56060
C        -24.15909      -21.13478       79.28462
C        -24.56717      -21.24200       77.80200
C        -23.89814      -22.38465       77.08494
O        -23.04300      -23.20764       77.72367
O        -24.12614      -22.56367       75.89912
H        -26.63390      -20.95423       80.23652
H        -24.46991      -19.02869       79.35985
H        -24.44411      -22.06264       79.82823
H        -23.05285      -21.02434       79.33209
H        -24.28352      -20.30242       77.27923
H        -25.66799      -21.37209       77.72434
N        -24.68199      -20.46936       82.39049
C        -24.26491      -20.25007       83.76157
H        -23.53455      -19.41862       83.85678
H        -25.15352      -20.00009       84.37927
H        -23.79601      -21.17371       84.15700
H        -25.34095      -21.24133       82.21346
Ca       -30.60326      -10.39870       87.36836
O        -30.44648      -11.55227       84.60955
H        -30.45270      -12.22935       83.88796
H        -29.59326      -11.06639       84.48859
O        -31.83352      -11.29560       89.74809
H        -32.18324      -12.22087       89.73529
H        -32.57397      -10.74738       90.10957
O        -30.09917      -13.25138       87.12139
H        -30.76877      -13.56940       87.77775
H        -29.39075      -13.94211       87.12732

Ca 1.0



