%chk=apoCaM-CA-Ng.loop1.water3.frame1163.chk
%nprocshared=20
%mem=10GB
%nosave
#b3lyp/svp scf=(tight,noincore,xqc) Test 
#IOP(5/87=12) Density=Current Pop=(MK,readradii) iop(6/33=2) iop(6/42=6)

apoCaM-CA-Ng.loop1.water3.frame1163 

   0  1 
C         89.33078       37.22486      111.76450
C         89.98178       38.50149      112.19702
O         89.38161       39.55391      112.02802
H         88.35023       37.43118      111.28216
H         89.97878       36.67044      111.05760
H         89.14676       36.60381      112.66733
N         91.20511       38.48349      112.80377
C         91.73654       39.65557      113.49238
C         92.64907       40.50385      112.61433
O         93.65509       40.99920      113.10701
C         92.42875       39.25206      114.81841
C         91.53775       38.44789      115.72781
O         91.16723       38.94876      116.92057
O         91.17071       37.32806      115.40793
H         91.66581       37.57070      112.94148
H         90.88303       40.31143      113.77475
H         92.72948       40.17949      115.35277
H         93.34848       38.66105      114.60836
N         92.34046       40.76907      111.31291
C         93.10028       41.72938      110.52124
C         92.87524       43.12640      111.07703
O         93.86558       43.74098      111.44762
C         92.79154       41.62647      109.01300
C         93.31198       40.29289      108.45063
C         92.95775       40.14774      106.97060
C         93.42593       38.79660      106.41651
N         93.05551       38.66194      105.00834
H         91.53691       40.29657      110.87832
H         94.18822       41.49931      110.60675
H         93.31167       42.44930      108.47372
H         91.70935       41.71991      108.80795
H         92.86215       39.44725      109.01328
H         94.41884       40.24793      108.57204
H         93.42337       40.97387      106.39021
H         91.85278       40.20937      106.86458
H         92.94725       37.97912      107.00071
H         94.53040       38.69900      106.51942
H         93.27522       37.69242      104.68531
H         92.03069       38.83291      104.88554
H         93.59708       39.34593      104.43157
N         91.65422       43.72275      111.23697
C         90.33608       43.18915      110.88497
C         89.49577       42.95524      112.14349
O         90.01192       43.09193      113.24281
C         89.67386       44.13631      109.85969
C         89.59201       45.53931      110.36041
O         88.91663       45.79242      111.48486
O         90.16051       46.44422      109.77197
H         91.66152       44.65820      111.67429
H         90.39652       42.20423      110.40142
H         88.65473       43.78754      109.60366
H         90.27205       44.13006      108.92329
N         88.21291       42.49723      112.05345
C         87.44025       42.07036      113.21308
C         86.89803       43.17589      114.10125
O         87.01765       44.35228      113.79105
H         87.80581       42.32657      111.12224
H         88.05347       41.36199      113.80940
H         86.54514       41.51618      112.85437
N         86.22896       42.80630      115.23517
C         85.43701       43.69587      116.09233
C         84.18559       42.94691      116.59182
O         84.23910       41.73031      116.70768
C         86.23743       44.16121      117.32941
C         87.42807       45.00479      116.99085
O         88.65070       44.63460      117.41591
O         87.28863       46.05524      116.38331
H         86.20422       41.79560      115.43597
H         85.13652       44.58722      115.50540
H         86.56238       43.27803      117.91965
H         85.59402       44.78120      117.98500
N         83.03683       43.56838      116.99310
C         82.80349       44.99617      116.93452
C         82.69670       45.49991      115.52098
O         82.67211       44.71669      114.58024
H         82.27877       42.98504      117.38214
H         83.60152       45.53021      117.48140
H         81.83965       45.23681      117.43554
N         82.61861       46.83839      115.31098
C         82.45099       47.42969      113.99337
C         83.57669       47.03745      113.04649
O         84.72277       46.96093      113.46387
C         82.31941       48.96945      114.11377
C         81.93040       49.62634      112.78910
O         83.51914       49.53712      114.57385
H         82.65811       47.45879      116.13532
H         81.48938       47.05390      113.58056
H         81.48618       49.19083      114.82337
H         83.38535       49.82063      115.51532
H         81.79647       50.71765      112.94042
H         82.71281       49.46829      112.01803
H         80.96967       49.20623      112.42466
N         83.28980       46.84841      111.72513
C         84.24792       46.61014      110.65244
C         85.21050       47.81194      110.56897
O         86.24186       47.74916      111.49664
C         84.91271       45.19891      110.73267
C         83.84754       44.06739      110.81400
C         85.86416       44.94765      109.54709
C         82.95475       43.91608      109.57295
H         82.30688       46.95059      111.43262
H         83.66229       46.63326      109.71100
H         85.51614       45.13671      111.66411
H         83.19671       44.24425      111.69630
H         84.36240       43.09530      110.97846
H         85.33602       45.06216      108.57725
H         86.71162       45.66180      109.55989
H         86.28129       43.91951      109.60054
H         82.38816       44.84366      109.35760
H         83.55350       43.63620      108.68153
H         82.21751       43.10477      109.74648
N         85.63459       48.12213      109.20247
C         86.74753       49.08372      108.99775
C         86.67682       50.44839      109.71503
O         87.60642       51.22292      109.53095
C         86.88114       49.35627      107.46416
C         85.74036       50.23430      106.90154
O         86.90519       48.14492      106.75443
H         84.77394       48.43887      108.70837
H         87.67131       48.56978      109.33086
H         87.82227       49.91933      107.26078
H         87.79467       47.73557      106.91221
H         85.73403       51.23475      107.38505
H         85.88163       50.39206      105.81281
H         84.73979       49.78004      107.04110
N         85.61069       50.85727      110.46056
C         85.45051       52.23696      110.93401
C         86.54361       52.65550      111.91117
O         86.54672       52.18794      113.03931
C         84.03371       52.41729      111.55840
C         83.82429       53.78649      112.20922
O         83.03608       52.27026      110.57478
H         84.83907       50.20337      110.61517
H         85.50808       52.90437      110.04642
H         83.89369       51.66247      112.36431
H         83.09255       51.36112      110.18791
H         83.95566       54.59474      111.46137
H         82.79405       53.83843      112.62363
H         84.52782       53.94521      113.05294
N         87.49436       53.56677      111.53178
C         88.53201       54.11224      112.40867
C         89.24653       52.99183      113.13933
O         89.17701       52.89672      114.35728
C         87.96348       55.20070      113.34703
C         87.30522       56.34096      112.54443
C         86.90410       57.52186      113.43918
C         86.21093       58.62043      112.61580
N         85.89461       59.78479      113.44332
H         87.50080       53.88788      110.55178
H         89.28537       54.63920      111.77875
H         88.81703       55.62231      113.92531
H         87.22803       54.77201      114.05992
H         86.40690       55.94506      112.02306
H         88.02117       56.71850      111.77999
H         87.82135       57.94161      113.90875
H         86.21712       57.17612      114.24127
H         85.27216       58.21572      112.17496
H         86.87683       58.94132      111.78407
H         86.77132       60.18324      113.85183
H         85.44230       60.51541      112.84687
H         85.23605       59.51758      114.21025
N         89.93933       52.08139      112.41218
C         90.51843       50.85975      112.95428
C         89.95384       49.65749      112.17715
O         88.61604       49.62029      112.55646
C         92.05103       50.93100      113.04474
C         92.45918       51.76479      114.27161
C         93.94732       51.86850      114.39248
O         94.57742       51.33360      115.45589
O         94.59263       52.45028      113.53586
H         90.01042       52.24432      111.39777
H         90.18178       50.68110      114.00233
H         92.49889       51.35178      112.12673
H         92.45367       49.90618      113.20413
H         92.06281       51.26264      115.18462
H         92.02667       52.78616      114.22235
N         89.97834       49.75800      110.70406
C         91.25630       50.06160      110.06312
H         92.05326       49.36038      110.38455
H         91.12756       49.98316      108.96142
H         91.54162       51.11475      110.23229
H         89.66925       48.82935      110.34292
Ca        87.88672       47.56372      113.01452
O         86.26364       49.45401      114.44013
H         85.85263       49.43183      113.53902
H         86.97967       50.13089      114.36766
O         89.87169       45.84823      114.58573
H         90.29310       45.41403      113.80600
H         89.61042       45.09840      115.17274
O         89.18871       48.56082      115.61725
H         89.20895       49.39305      116.15187
H         90.09109       48.17128      115.73353

Ca 1.0



