%chk=apoCaM-CA-Ng.loop3.water3.frame594.chk
%nprocshared=20
%mem=10GB
%nosave
#b3lyp/svp scf=(tight,noincore,xqc) Test 
#IOP(5/87=12) Density=Current Pop=(MK,readradii) iop(6/33=2) iop(6/42=6)

apoCaM-CA-Ng.loop3.water3.frame594 

   0  1 
C         37.64674      116.91802       64.76220
C         37.97721      117.34504       63.36400
O         37.18164      117.12742       62.46112
H         36.65403      116.42260       64.80201
H         38.42067      116.21269       65.13001
H         37.62625      117.81089       65.42341
N         39.14642      117.99475       63.12120
C         39.51747      118.50084       61.80696
C         39.72077      117.34656       60.82803
O         40.61393      116.54016       61.04882
C         40.79020      119.37182       61.95388
C         41.15936      120.12987       60.72011
O         42.20910      120.97143       60.73443
O         40.50834      120.00270       59.70409
H         39.77100      118.17685       63.92338
H         38.69631      119.16332       61.45526
H         41.64983      118.74479       62.27368
H         40.60460      120.12916       62.74202
N         38.89714      117.18120       59.74557
C         39.01837      116.03489       58.83605
C         40.27032      116.08366       57.96500
O         40.57978      115.08350       57.33026
C         37.71148      115.82651       58.02161
C         37.31395      116.88751       56.96652
C         38.06758      116.74945       55.63008
C         37.48271      117.62117       54.49844
N         37.62389      119.05269       54.75310
H         38.11405      117.84001       59.62313
H         39.09615      115.13295       59.48461
H         36.89528      115.79732       58.77705
H         37.72070      114.82860       57.53055
H         37.39770      117.90794       57.38676
H         36.24266      116.70267       56.73194
H         37.96947      115.69514       55.29070
H         39.14145      116.97609       55.75334
H         36.40718      117.37590       54.34494
H         38.02083      117.37491       53.55692
H         37.29446      119.58394       53.91460
H         37.02523      119.32600       55.55890
H         38.62480      119.29412       54.93475
N         41.02074      117.21802       57.86759
C         42.23848      117.35663       57.07316
C         43.43499      117.80880       57.91642
O         44.53027      117.87967       57.37855
C         41.99702      118.33933       55.89387
C         41.56270      119.73167       56.30915
O         42.26060      120.69168       56.04580
O         40.41583      119.92162       56.98825
H         40.69236      118.04467       58.36851
H         42.51458      116.37236       56.63345
H         41.21762      117.91983       55.22722
H         42.93619      118.40658       55.30076
N         43.30907      118.13417       59.23655
C         44.40228      118.57551       60.08574
C         45.02782      119.91912       59.73344
O         45.88434      120.32380       60.50741
H         42.40272      118.03068       59.70200
H         45.19286      117.79481       60.11072
H         44.00609      118.67537       61.12197
N         44.71114      120.66082       58.61981
C         45.38077      121.93155       58.31873
C         44.40050      123.04697       57.96479
O         43.20092      122.81790       57.90781
C         46.44593      121.74913       57.19973
C         45.95808      121.97558       55.78203
N         45.04121      121.17464       55.20226
O         46.40680      122.92176       55.14991
H         44.02820      120.30294       57.94446
H         45.95243      122.25360       59.21595
H         46.95590      120.76686       57.30439
H         47.22584      122.52245       57.37626
H         44.66425      120.36110       55.70073
H         44.71471      121.37353       54.24369
N         44.88484      124.28248       57.65066
C         44.08988      125.39104       57.14444
C         43.03242      125.83267       58.11285
O         43.33237      125.96676       59.29180
H         45.90010      124.44300       57.72849
H         43.63956      125.12792       56.16298
H         44.77352      126.25073       56.97913
N         41.77243      126.13828       57.67858
C         40.73371      126.54860       58.61309
C         40.29572      125.35555       59.43973
O         40.77621      124.25443       59.21527
C         39.50068      127.16992       57.90960
C         39.79939      128.35283       57.01811
C         40.58205      129.43300       57.46616
C         39.24571      128.40185       55.72708
C         40.81739      130.52955       56.63087
C         39.46562      129.50793       54.90256
C         40.25626      130.57467       55.35078
O         40.47644      131.64802       54.56530
H         41.56129      126.10643       56.66937
H         41.15225      127.32662       59.28754
H         38.81006      127.54612       58.69233
H         38.95311      126.39308       57.33788
H         41.01691      129.43284       58.45621
H         38.62085      127.59473       55.36478
H         41.42985      131.34997       56.98332
H         39.01567      129.53622       53.91820
H         40.09400      131.72361       53.67934
N         39.36674      125.51176       60.41899
C         38.87013      124.44211       61.26733
C         38.11630      123.38064       60.39341
O         38.98774      122.31543       60.12405
C         40.02585      123.86669       62.16885
C         39.55320      122.82033       63.20922
C         40.82443      124.99191       62.85727
C         38.61589      123.35631       64.29322
H         38.98730      126.45368       60.59524
H         38.12794      124.92844       61.93692
H         40.75612      123.34196       61.51653
H         40.45010      122.40178       63.71744
H         39.05223      121.98129       62.68877
H         41.64922      124.56116       63.46489
H         41.29354      125.65940       62.10416
H         40.17555      125.61272       63.50700
H         39.11066      124.14973       64.89018
H         37.67831      123.75058       63.85487
H         38.35502      122.52987       64.98709
N         36.94377      122.87320       61.12768
C         36.27742      121.66629       60.59167
C         35.06546      121.91110       59.67933
O         34.49209      120.91875       59.24685
C         35.78723      120.84890       61.79678
O         36.85875      120.57007       62.65444
H         36.28427      123.61598       61.45094
H         37.00895      121.03152       60.05397
H         35.33845      119.88912       61.45756
H         35.01519      121.44848       62.33471
H         36.46250      120.33575       63.53320
N         34.54450      123.14731       59.40903
C         33.22733      123.28679       58.78022
C         33.19699      122.84772       57.31837
O         34.23557      122.90524       56.67525
C         32.71589      124.72471       58.88887
H         35.00648      123.99200       59.77018
H         32.55408      122.64637       59.38419
H         33.38240      125.41903       58.33530
H         31.69041      124.80435       58.47151
H         32.68056      125.02867       59.95665
N         32.06673      122.36930       56.70034
C         30.77312      122.14801       57.35246
C         29.60558      122.74686       56.56705
O         29.78115      123.03904       55.39257
C         30.59013      120.63034       57.47658
H         32.15783      122.05902       55.71902
H         30.76387      122.58661       58.35363
H         29.64907      120.34265       57.97551
H         30.59813      120.16061       56.46928
H         31.43012      120.20763       58.06817
N         28.35298      122.92329       57.10385
C         28.01662      122.76171       58.51941
C         28.72848      123.81319       59.35050
O         29.38042      123.46275       60.32429
C         26.48533      122.75238       58.80613
C         25.67357      124.05861       58.68670
C         25.53811      124.57787       57.28707
O         25.01593      123.88909       56.42526
O         25.94644      125.82479       56.98500
H         27.60745      123.22798       56.46265
H         28.32760      121.75535       58.85535
H         26.37446      122.43854       59.86921
H         26.00543      121.96034       58.19001
H         26.10278      124.83497       59.35356
H         24.64576      123.85052       59.05732
N         28.67243      125.12649       58.98892
C         29.32688      126.19428       59.71368
H         30.06190      126.69161       59.04641
H         28.56688      126.94100       60.02475
H         29.85744      125.82956       60.61710
H         28.15616      125.39094       58.13935
Ca        39.77664      121.86961       58.00109
O         37.36206      120.58022       57.63374
H         36.50373      120.10770       57.76535
H         37.14453      121.32993       57.02565
O         41.41998      123.33481       55.60385
H         42.27195      123.12656       55.14393
H         41.02527      124.06919       55.07224
O         38.44671      124.04335       56.50022
H         37.74586      123.79809       57.15536
H         38.45932      123.29602       55.85133

Ca 1.0



