%chk=apoCaM-CA-Ng.loop1.water1.frame882.chk
%nprocshared=20
%mem=10GB
%nosave
#b3lyp/svp scf=(tight,noincore,xqc) Test 
#IOP(5/87=12) Density=Current Pop=(MK,readradii) iop(6/33=2) iop(6/42=6)

apoCaM-CA-Ng.loop1.water1.frame882 

   0  1 
C         85.90486      -12.12240       25.16032
C         86.45848      -11.18570       26.19291
O         86.12860      -10.01084       26.17212
H         85.21877      -11.58898       24.46821
H         86.73619      -12.56403       24.57213
H         85.34117      -12.93689       25.66246
N         87.30790      -11.65548       27.14634
C         87.87457      -10.82738       28.20999
C         88.76481       -9.66416       27.68072
O         89.22526       -9.88867       26.36836
C         88.59531      -11.69812       29.26641
C         89.66325      -12.61843       28.74216
O         90.68282      -12.17773       28.24965
O         89.51226      -13.95175       28.85859
H         87.53333      -12.66199       27.12644
H         87.03386      -10.37091       28.78089
H         87.82049      -12.34058       29.73891
H         89.02018      -11.04826       30.06224
N         88.06634       -8.37065       27.85720
C         88.41482       -7.18914       27.03718
C         89.72563       -6.51526       27.45637
O         89.74194       -5.32793       27.75438
C         87.23705       -6.18638       27.13599
C         85.93605       -6.78169       26.59082
C         84.74008       -5.85484       26.82273
C         83.46654       -6.49082       26.24914
N         82.28802       -5.68224       26.55245
H         88.04533       -8.12123       28.87376
H         88.51935       -7.49218       25.97299
H         87.45576       -5.26708       26.55718
H         87.09948       -5.90359       28.20461
H         85.71867       -7.73274       27.11654
H         86.06200       -6.98182       25.50375
H         84.91371       -4.86640       26.34339
H         84.61485       -5.70394       27.91804
H         83.32667       -7.50527       26.68550
H         83.57373       -6.59623       25.14619
H         82.39149       -4.72330       26.14929
H         81.44610       -6.14080       26.13491
H         82.15735       -5.62057       27.58862
N         90.87938       -7.22761       27.45136
C         92.20466       -6.68672       27.67219
C         93.13590       -7.03333       26.50663
O         93.50414       -8.19115       26.38442
C         92.79026       -7.17416       29.01874
C         93.06948       -8.65209       29.29632
O         93.61665       -8.90467       30.35790
O         92.77026       -9.71094       28.49664
H         90.80232       -8.20420       27.26058
H         92.12642       -5.58647       27.76617
H         92.12052       -6.81125       29.82967
H         93.76341       -6.64859       29.13942
N         93.60585       -6.11834       25.60573
C         93.16739       -4.73679       25.49527
C         91.77396       -4.65480       24.90973
O         91.19330       -5.68585       24.59642
H         94.29785       -6.44065       24.91041
H         93.83017       -4.21132       24.77387
H         93.25762       -4.21464       26.46915
N         91.17888       -3.44308       24.70976
C         89.86322       -3.30597       24.08674
C         89.88813       -2.35787       22.90320
O         90.85395       -1.62859       22.71999
C         88.83094       -2.83803       25.12749
C         89.15292       -1.49502       25.72803
O         89.18138       -0.49288       25.03140
O         89.39431       -1.39183       27.04844
H         91.67272       -2.59276       25.02188
H         89.52418       -4.29433       23.70431
H         88.81021       -3.58845       25.93992
H         87.81825       -2.79796       24.67085
N         88.82423       -2.33236       22.05035
C         88.67809       -1.41751       20.93180
C         89.90648       -1.35688       20.06877
O         90.38167       -0.25496       19.82820
H         88.06327       -3.01363       22.19497
H         88.46271       -0.39563       21.31605
H         87.80738       -1.73717       20.31982
N         90.51518       -2.49202       19.61860
C         91.74450       -2.44072       18.83698
C         92.93642       -2.90874       19.64785
O         92.78815       -3.61113       20.63770
C         91.62609       -3.21385       17.50213
C         91.45796       -4.72608       17.69636
O         90.53761       -2.72743       16.76147
H         90.12939       -3.40683       19.89376
H         91.95882       -1.38281       18.56911
H         92.56633       -3.07691       16.91614
H         90.82592       -1.86741       16.35785
H         90.52837       -4.96037       18.25372
H         91.40486       -5.22582       16.70632
H         92.32600       -5.15012       18.24512
N         94.16715       -2.46565       19.28298
C         95.41515       -2.80665       19.96137
C         96.49045       -1.80268       19.55111
O         97.11183       -1.22339       20.43344
C         95.79449       -4.30492       19.73791
C         97.04727       -4.74906       20.53766
C         95.99706       -4.63878       18.25166
C         96.89191       -4.61700       22.05534
H         94.18565       -1.79889       18.50019
H         95.24955       -2.65489       21.04903
H         94.94403       -4.92734       20.09323
H         97.94190       -4.17650       20.21059
H         97.23382       -5.82575       20.32697
H         96.87276       -4.09862       17.83639
H         96.17727       -5.72859       18.12895
H         95.09090       -4.37945       17.66501
H         96.78904       -3.55758       22.36358
H         96.00854       -5.19238       22.40658
H         97.79747       -5.02228       22.55458
N         96.63666       -1.42159       18.24614
C         97.43996       -0.28239       17.82406
C         98.28607       -0.67401       16.64037
O         97.76060       -1.19604       15.66360
C         96.53841        0.91035       17.44567
C         95.65708        1.33198       18.63047
O         97.36132        1.98888       17.07594
H         96.05990       -1.87295       17.52033
H         98.08933        0.07338       18.65678
H         95.88958        0.62004       16.58751
H         96.77317        2.68718       16.68794
H         95.03715        2.20783       18.34860
H         94.97076        0.51159       18.92350
H         96.28643        1.60607       19.50469
N         99.61811       -0.44347       16.66772
C        100.53587       -0.87097       15.62962
C        101.42065       -1.94332       16.22599
O        101.55167       -2.99629       15.62222
C        101.30904        0.33811       15.04264
C        102.21715       -0.07959       13.87471
O        102.06949        0.97502       16.03610
H        100.00494        0.03574       17.49488
H         99.98676       -1.32610       14.77288
H        100.54578        1.04897       14.64480
H        102.30195        1.87475       15.68341
H        103.00511       -0.78329       14.21324
H        101.61999       -0.56819       13.07493
H        102.71029        0.81441       13.43595
N        102.01753       -1.75898       17.44291
C        102.89882       -2.74227       18.04909
C        102.41528       -3.21198       19.41207
O        101.45985       -2.69294       19.96802
C        104.27757       -2.08267       18.22775
C        104.88299       -1.68147       16.87778
C        106.24641       -0.99907       17.02082
C        106.15422        0.38486       17.68666
N        107.46822        1.02184       17.73289
H        101.88245       -0.87719       17.95487
H        102.98941       -3.64223       17.40415
H        104.98490       -2.77367       18.73223
H        104.14449       -1.19231       18.87970
H        104.20318       -1.00000       16.32447
H        105.01199       -2.60796       16.27762
H        106.65803       -0.86307       15.99814
H        106.93594       -1.65833       17.59190
H        105.76423        0.30113       18.72288
H        105.45734        1.02753       17.10262
H        107.84742        1.13226       16.76445
H        107.37569        1.96676       18.17051
H        108.12416        0.44323       18.30633
N        103.13083       -4.20300       20.01391
C        102.98336       -4.65092       21.39084
C        101.59661       -5.20619       21.71560
O        101.01242       -4.71319       22.67073
C        104.14447       -5.62723       21.70562
C        104.27766       -5.99720       23.18392
C        105.52403       -6.81425       23.39274
O        105.65558       -7.89379       22.83747
O        106.51361       -6.34619       24.17773
H        103.89597       -4.61996       19.46295
H        103.15628       -3.76704       22.04653
H        105.08905       -5.10943       21.41976
H        104.07798       -6.54484       21.09226
H        103.39139       -6.57204       23.52454
H        104.35674       -5.06573       23.78554
N        100.96368       -6.19717       21.02160
C        101.46612       -6.82887       19.82236
H        102.40848       -7.36867       20.01621
H        100.72524       -7.57414       19.46071
H        101.60193       -6.07369       19.02197
H        100.03267       -6.49915       21.35120
Ca        91.48036      -10.22396       26.68606
O         91.06589       -8.94213       24.00038
H         90.08174       -8.90727       23.89844
H         91.38822       -8.09913       23.59520

Ca 1.0



