%chk=apoCaM-CA-Ng.loop1.water4.frame331.chk
%nprocshared=20
%mem=10GB
%nosave
#b3lyp/svp scf=(tight,noincore,xqc) Test 
#IOP(5/87=12) Density=Current Pop=(MK,readradii) iop(6/33=2) iop(6/42=6)

apoCaM-CA-Ng.loop1.water4.frame331 

   0  1 
C         59.53560       70.56428       86.13243
C         60.47961       71.50169       85.44204
O         61.19957       71.07776       84.54917
H         58.49236       70.91539       85.98177
H         59.62683       69.53687       85.72019
H         59.75863       70.54006       87.21903
N         60.51040       72.81356       85.80305
C         61.34622       73.81012       85.14773
C         62.30785       74.48002       86.12278
O         62.98675       75.39392       85.69402
C         60.43909       74.89441       84.51356
C         59.51310       74.34396       83.46107
O         58.57389       73.43451       83.78431
O         59.58815       74.74459       82.31024
H         59.88080       73.13195       86.55708
H         61.95449       73.35704       84.33516
H         61.07751       75.67189       84.03833
H         59.83059       75.39055       85.30136
N         62.42228       74.13118       87.43768
C         63.18269       74.94471       88.38859
C         64.32728       74.17793       89.03239
O         64.06190       73.10259       89.55092
C         62.22638       75.45400       89.48368
C         61.10332       76.31786       88.89087
C         60.23006       76.93171       89.98637
C         59.17488       77.86567       89.37867
N         58.35349       78.47456       90.42339
H         61.89646       73.32520       87.80585
H         63.58283       75.83735       87.89241
H         62.81210       76.07417       90.19745
H         61.78384       74.59968       90.04176
H         60.47071       75.71213       88.20540
H         61.56016       77.13736       88.30847
H         60.87286       77.52150       90.67637
H         59.73218       76.12148       90.56219
H         58.52278       77.29361       88.68169
H         59.68321       78.67073       88.80095
H         57.84298       77.73321       90.95567
H         58.95512       79.02791       91.07626
H         57.65722       79.11656       89.98048
N         65.61459       74.65498       89.14325
C         66.15511       75.93019       88.65209
C         65.36918       77.13866       89.15645
O         64.80508       77.85985       88.35045
C         66.35522       75.91492       87.11839
C         67.44751       74.96724       86.69799
O         68.12611       74.24280       87.61014
O         67.76626       74.89843       85.52234
H         66.27884       74.06627       89.67060
H         67.18183       76.06267       89.05435
H         66.69264       76.92320       86.79431
H         65.41685       75.66992       86.58597
N         65.31772       77.48383       90.47192
C         66.09369       76.79682       91.48731
C         65.98969       77.43024       92.86375
O         65.19032       78.33480       93.05778
H         64.76434       78.31712       90.72273
H         67.15638       76.87302       91.17766
H         65.79277       75.73066       91.55322
N         66.81474       77.05733       93.88577
C         67.86952       76.05388       93.76031
C         69.21656       76.73693       93.66643
O         69.30208       77.94158       93.87266
C         67.77584       75.01077       94.88656
C         67.88150       75.61993       96.25923
O         66.95190       75.52114       97.04434
O         68.99895       76.27196       96.63280
H         66.74551       77.57982       94.77339
H         67.76517       75.49740       92.80887
H         68.57578       74.24977       94.76571
H         66.79590       74.49263       94.79183
N         70.30528       76.03946       93.23155
C         71.57381       76.68617       92.94222
C         71.47942       77.69489       91.80403
O         72.47075       78.36776       91.56225
H         70.22350       75.02653       93.05655
H         72.33071       75.92272       92.65954
H         71.92760       77.19937       93.86258
N         70.33667       77.86415       91.06659
C         70.18418       78.87719       90.02806
C         69.06176       79.83697       90.42474
O         68.31915       79.54390       91.35201
C         69.84556       78.18357       88.67850
C         70.87006       77.11572       88.28832
O         69.78000       79.13049       87.64746
H         69.52105       77.26231       91.23477
H         71.12392       79.46137       89.92445
H         68.85548       77.68429       88.79865
H         69.19661       78.74682       86.94016
H         71.87364       77.56976       88.15461
H         70.92336       76.32034       89.05993
H         70.55985       76.64053       87.33205
N         68.87616       81.00514       89.74619
C         67.73796       81.90141       89.96956
C         66.89263       82.04262       88.70368
O         65.89890       82.75643       88.74512
C         68.20114       83.31836       90.42582
C         69.09427       84.01324       89.36093
C         68.89548       83.25773       91.79606
C         69.21071       85.52246       89.57373
H         69.56001       81.25616       89.01742
H         67.06577       81.49072       90.75549
H         67.27591       83.92532       90.55212
H         68.64448       83.89630       88.35413
H         70.10273       83.54689       89.33756
H         69.14387       84.27435       92.16283
H         68.21989       82.79242       92.54507
H         69.83040       82.66128       91.73934
H         69.83103       85.96033       88.76321
H         68.20041       85.98474       89.52091
H         69.67700       85.77179       90.54604
N         67.25280       81.44257       87.53363
C         66.58948       81.66009       86.26117
C         66.04825       80.34035       85.74875
O         66.81307       79.41279       85.52239
C         67.56211       82.35988       85.27252
C         68.89868       81.62489       85.04912
O         67.83858       83.64531       85.76792
H         68.06142       80.81966       87.51368
H         65.73043       82.35524       86.38728
H         67.02846       82.45088       84.29833
H         68.16944       84.18816       85.00544
H         68.74974       80.60661       84.64265
H         69.51532       82.19015       84.31968
H         69.48697       81.56289       85.98906
N         64.70484       80.17299       85.59988
C         64.10432       78.90171       85.20819
C         64.45740       78.50950       83.77780
O         65.09178       79.27939       83.06974
C         62.56208       78.93364       85.44397
C         61.81878       79.86637       84.48507
O         62.27604       79.34983       86.75466
H         64.08798       80.95944       85.85190
H         64.51191       78.11782       85.87971
H         62.13672       77.91736       85.29317
H         62.73280       78.72265       87.36648
H         61.96079       79.54316       83.43362
H         60.73166       79.83090       84.71336
H         62.16209       80.91513       84.59594
N         64.04927       77.30294       83.29434
C         64.26767       76.83118       81.93956
C         65.07641       75.53934       81.95875
O         66.16258       75.52710       81.39699
C         62.88595       76.64896       81.27667
C         62.95676       76.20536       79.81162
C         61.54350       76.10831       79.21990
C         61.58199       75.68524       77.74729
N         60.23153       75.62009       77.18845
H         63.51554       76.68950       83.91004
H         64.83026       77.59181       81.35312
H         62.35553       77.62645       81.32328
H         62.28353       75.91176       81.85053
H         63.45497       75.21384       79.74258
H         63.54753       76.94888       79.23371
H         61.04554       77.10015       79.29773
H         60.94897       75.36644       79.79773
H         62.06564       74.68697       77.66022
H         62.18188       76.42065       77.16647
H         59.77419       76.55946       77.24275
H         60.28938       75.33108       76.18538
H         59.65780       74.91876       77.71098
N         64.59510       74.40569       82.55395
C         65.28967       73.11990       82.53104
C         64.48435       72.14470       81.69766
O         63.33487       71.87756       82.02294
C         65.49495       72.56657       83.96704
C         66.10153       71.14051       83.98641
C         67.44873       71.06065       83.31754
O         67.56249       70.49191       82.24394
O         68.54839       71.55214       83.91653
H         63.66677       74.43712       82.99962
H         66.29564       73.22830       82.07107
H         64.51027       72.51758       84.48244
H         66.13964       73.25979       84.54056
H         65.39836       70.45951       83.46127
H         66.18852       70.76279       85.02744
N         65.05175       71.54318       80.61617
C         64.35099       70.55869       79.82391
H         63.44338       71.00922       79.37174
H         65.01343       70.18862       79.01235
H         64.06377       69.69647       80.46345
H         66.02321       71.77119       80.35557
Ca        68.54126       71.98566       86.12313
O         71.26521       73.73063       87.58040
H         71.35413       73.87340       88.55597
H         71.87286       74.39877       87.17436
O         72.00697       71.10228       86.07742
H         71.94154       70.12855       86.24387
H         72.97297       71.30401       86.15951
O         70.86662       73.67430       84.47350
H         70.65798       74.63964       84.54418
H         71.52335       73.61423       83.73502
O         69.24191       68.96700       85.97809
H         69.74938       68.14669       86.20060
H         69.39787       69.09970       85.00941

Ca 1.0



