%chk=apoCaM-CA-Ng.loop4.water5.frame669.chk
%nprocshared=20
%mem=10GB
%nosave
#b3lyp/svp scf=(tight,noincore,xqc) Test 
#IOP(5/87=12) Density=Current Pop=(MK,readradii) iop(6/33=2) iop(6/42=6)

apoCaM-CA-Ng.loop4.water5.frame669 

   -3  1 
C         -7.92676       51.87566      110.21878
C         -7.64751       52.50253      111.55270
O         -7.57980       53.71979      111.64107
H         -8.05325       52.65189      109.43468
H         -7.08513       51.21006      109.93458
H         -8.86036       51.27617      110.27848
N         -7.49736       51.71016      112.65105
C         -7.25639       52.20079      114.00471
C         -8.37334       53.13512      114.43921
O         -8.10397       54.24606      114.87388
C         -5.86692       52.86949      114.12710
C         -4.75693       51.93467      113.75309
O         -4.58422       50.78328      114.42894
O         -3.99278       52.22672      112.84830
H         -7.58835       50.68913      112.52987
H         -7.27322       51.32433      114.69116
H         -5.70277       53.18899      115.17869
H         -5.81899       53.77384      113.48230
N         -9.67327       52.75298      114.31111
C        -10.78057       53.63296      114.67400
C        -10.82680       53.84509      116.18155
O        -10.62376       52.88064      116.90635
C        -12.15630       53.12652      114.14256
C        -12.59440       51.76615      114.74832
C        -12.13452       53.09596      112.60041
C        -14.02228       51.37232      114.36755
H         -9.86868       51.83019      113.89715
H        -10.62418       54.60073      114.16198
H        -12.91121       53.88730      114.44336
H        -12.58612       51.83499      115.85451
H        -11.89999       50.95543      114.44456
H        -11.83812       54.09048      112.20270
H        -11.41756       52.33819      112.22139
H        -13.13729       52.87576      112.18573
H        -14.12446       51.20797      113.27690
H        -14.29071       50.42419      114.87866
H        -14.73456       52.16133      114.69191
N        -11.16225       55.03378      116.76360
C        -11.44656       56.27851      116.05328
C        -10.16254       56.83016      115.45212
O        -10.10981       57.09370      114.25914
C        -12.07041       57.29701      117.03308
C        -12.51948       58.55098      116.33662
O        -13.36232       58.49584      115.45458
O        -12.01252       59.74405      116.69900
H        -11.24463       55.03770      117.79363
H        -12.21259       56.08766      115.26873
H        -11.34815       57.54832      117.83981
H        -12.96659       56.83892      117.50777
N         -9.06281       56.96751      116.24132
C         -7.75537       57.37771      115.76533
C         -7.66761       58.84817      115.45553
O         -8.00530       59.64616      116.31882
H         -9.13119       56.68453      117.23090
H         -7.43056       56.74557      114.91197
H         -7.03200       57.20716      116.59175
N         -7.09658       59.27698      114.29082
C         -6.76222       60.68031      114.04824
C         -7.33647       61.26116      112.76757
O         -7.16547       62.45788      112.57539
C         -5.22320       60.87238      114.09408
C         -4.40660       60.09848      113.08321
O         -3.06958       60.25469      113.06828
O         -4.92100       59.32643      112.29125
H         -6.79109       58.56648      113.61084
H         -7.17538       61.30928      114.86665
H         -4.86450       60.57726      115.10318
H         -4.99624       61.95271      113.96099
N         -8.02161       60.52705      111.84330
C         -8.55401       61.14478      110.63525
C         -7.48208       61.67712      109.69515
O         -7.84381       62.33564      108.73050
H         -8.19653       59.52392      111.99731
H         -9.22350       61.97885      110.93821
H         -9.16471       60.40814      110.06909
N         -6.15530       61.39142      109.86931
C         -5.08842       61.82666      108.97498
C         -5.25673       61.29290      107.55622
O         -4.52236       61.72232      106.67883
C         -4.85431       63.35218      109.05087
C         -4.42527       63.75971      110.47514
C         -3.97032       65.19423      110.54312
N         -4.57657       66.07894      111.36779
O         -3.02060       65.55585      109.86379
H         -5.86983       60.79483      110.65010
H         -4.13130       61.37588      109.32408
H         -5.74999       63.92479      108.72992
H         -4.01653       63.60154      108.36256
H         -3.56628       63.13158      110.79915
H         -5.26365       63.58109      111.17926
H         -5.36966       65.79461      111.96032
H         -4.24329       67.05316      111.42094
N         -6.09212       60.24141      107.29889
C         -6.13943       59.54546      106.01611
C         -5.46203       58.18619      106.12250
O         -5.28421       57.55021      105.09003
C         -7.60208       59.38044      105.50829
C         -8.48443       58.56995      106.48177
C         -8.25212       60.73766      105.22410
H         -6.63590       59.83851      108.07005
H         -5.55773       60.11247      105.25680
H         -7.56788       58.82350      104.54513
H         -9.49104       58.40886      106.04224
H         -8.04134       57.57193      106.68200
H         -8.62371       59.09773      107.44817
H         -7.65602       61.29442      104.47092
H         -9.27451       60.58888      104.81397
H         -8.32593       61.34483      106.15027
N         -5.08433       57.65838      107.32397
C         -4.46858       56.35125      107.47976
C         -3.17032       56.52665      108.28495
O         -2.77325       57.65434      108.55864
C         -5.53571       55.41769      108.13304
C         -5.49342       53.95686      107.69015
N         -6.51368       53.42616      106.97304
O         -4.55670       53.23604      107.97782
H         -5.28511       58.16202      108.19975
H         -4.23230       55.91954      106.48197
H         -6.52759       55.77884      107.78455
H         -5.54088       55.52744      109.23850
H         -7.33432       53.98823      106.70704
H         -6.48166       52.43848      106.67718
N         -2.47676       55.45469      108.72515
C         -1.25003       55.47731      109.50680
C         -0.27921       54.53295      108.83407
O         -0.68431       53.40995      108.56330
C         -1.56721       54.94144      110.91891
C         -0.31587       54.74230      111.74157
C          0.12029       53.43811      112.02282
C          0.43369       55.83343      112.21136
C          1.28937       53.22310      112.75264
C          1.59880       55.61585      112.95770
C          2.03197       54.31161      113.22677
O          3.16039       54.11493      113.93770
H         -2.85492       54.53145      108.52662
H         -0.82143       56.50041      109.60760
H         -2.08497       53.96562      110.80419
H         -2.27220       55.61516      111.45314
H         -0.43755       52.58506      111.65850
H          0.11432       56.84781      112.00711
H          1.61651       52.20957      112.94650
H          2.16824       56.46068      113.32433
H          3.49094       53.22735      114.13916
N          1.01766       54.86209      108.58410
C          1.92324       53.89974      107.97100
C          2.95686       53.44725      108.98633
O          3.82009       54.25447      109.30548
C          2.60032       54.51709      106.72893
C          3.42665       53.48016      105.95071
C          4.18895       54.12969      104.83336
O          3.98063       53.80892      103.67456
O          5.12987       55.05346      105.11034
H          1.37764       55.78457      108.87724
H          1.35090       53.03730      107.61058
H          3.24937       55.36062      107.05575
H          1.82593       54.93072      106.04600
H          2.73753       52.70464      105.54758
H          4.16350       52.98266      106.61550
N          2.99678       52.20393      109.56063
C          1.98880       51.13499      109.49834
C          1.68144       50.65868      108.09041
O          2.59065       50.28057      107.36532
C          2.49617       49.93174      110.33547
C          1.55270       48.71941      110.43822
C          0.32633       48.96513      111.27140
O          0.15817       48.32698      112.29853
O         -0.62109       49.83413      110.88120
H          3.80663       52.03383      110.17911
H          1.05968       51.51674      109.96826
H          2.74239       50.26631      111.36741
H          3.43880       49.57468      109.86409
H          2.13076       47.90400      110.92601
H          1.25633       48.35611      109.43158
N          0.38382       50.61687      107.66558
C         -0.03006       50.15397      106.35845
H         -0.59017       50.96322      105.84417
H          0.82881       49.85548      105.72364
H         -0.70415       49.27904      106.47940
H         -0.36667       50.90901      108.30855
Ca        -2.52406       49.86534      112.09893
O         -2.68405       46.62278      111.90884
H         -1.71986       46.43028      111.79481
H         -3.12607       45.74382      111.80016
O         -2.62166       48.53706      109.26571
H         -2.97331       48.87879      108.40589
H         -2.69934       47.55315      109.19751
O         -3.20848       51.36898      109.72829
H         -3.93954       51.79965      110.23695
H         -2.62840       52.11688      109.44750
O         -1.04375       51.34022      114.34371
H         -0.51196       51.01164      113.57669
H         -0.87182       50.67772      115.05817
O         -3.05736       48.11780      114.59008
H         -3.14307       48.61583      115.44133
H         -3.04377       47.16517      114.85873

Ca 1.0



