%chk=apoCaM-CA-Ng.loop4.water3.frame216.chk
%nprocshared=20
%mem=10GB
%nosave
#b3lyp/svp scf=(tight,noincore,xqc) Test 
#IOP(5/87=12) Density=Current Pop=(MK,readradii) iop(6/33=2) iop(6/42=6)

apoCaM-CA-Ng.loop4.water3.frame216 

   -3  1 
C         37.89742       32.68495       81.86838
C         39.05442       33.63322       81.95915
O         40.11094       33.21269       82.40465
H         37.00478       33.17262       81.42552
H         38.18328       31.82119       81.23053
H         37.63997       32.31484       82.88269
N         38.94337       34.92272       81.52125
C         40.04345       35.88329       81.51682
C         41.23320       35.31102       80.76530
O         42.29807       35.13560       81.33489
C         40.35369       36.49010       82.91327
C         40.70181       35.54762       84.02976
O         41.80646       35.58985       84.54427
O         39.76026       34.74177       84.55456
H         38.05118       35.22420       81.10114
H         39.72143       36.77312       80.92934
H         39.47117       37.07490       83.25252
H         41.18775       37.21461       82.77570
N         41.07659       35.01726       79.44163
C         42.07659       34.47669       78.52282
C         43.25594       35.43328       78.37865
O         43.27686       36.17961       77.40969
C         42.46180       33.00265       78.84876
C         43.41668       32.38041       77.79250
C         41.20351       32.13196       79.01703
C         42.82838       32.25148       76.38054
H         40.15090       35.21335       79.02840
H         41.56472       34.45681       77.53544
H         42.99067       32.97772       79.82235
H         43.70602       31.36153       78.13170
H         44.34665       32.98447       77.73371
H         40.59050       32.49383       79.86512
H         40.56906       32.14825       78.10789
H         41.48840       31.08494       79.23315
H         43.58447       31.79825       75.70779
H         41.93587       31.59186       76.37628
H         42.55831       33.23933       75.95818
N         44.27364       35.46787       79.28880
C         45.33745       36.46352       79.27063
C         46.62866       35.93717       78.62690
O         47.03621       36.55636       77.65365
C         45.50455       37.05771       80.68620
C         46.50861       38.17406       80.72811
O         47.58820       38.08001       81.52740
O         46.34061       39.17933       80.05606
H         44.27389       34.79211       80.05976
H         45.01078       37.32027       78.63677
H         45.79481       36.27639       81.41039
H         44.52465       37.46067       81.02514
N         47.35215       34.84560       79.02867
C         47.00131       33.96428       80.13000
C         47.94601       32.77842       80.29943
O         48.87455       32.64386       79.51520
H         48.19867       34.63541       78.47839
H         46.01158       33.53900       79.90857
H         47.00831       34.55133       81.05561
N         47.78692       31.82478       81.27315
C         46.78601       31.79678       82.34080
C         45.38651       31.84591       81.76238
O         44.74216       32.87781       81.88179
C         47.05867       32.90532       83.39478
C         46.52087       32.63427       84.79690
O         47.32697       32.58774       85.71286
O         45.21132       32.48101       85.11390
H         48.45075       31.03393       81.26363
H         46.92170       30.84544       82.90158
H         46.71029       33.89516       83.05606
H         48.16408       32.97646       83.50628
N         44.80951       30.79982       81.11205
C         45.40765       29.49558       80.90993
C         46.40769       29.47126       79.79033
O         46.20146       30.14125       78.78766
H         43.83907       30.91904       80.78660
H         44.60585       28.82118       80.54722
H         45.77502       29.04756       81.85751
N         47.43006       28.57020       79.82059
C         48.28589       28.31618       78.66419
C         47.48619       27.70116       77.50472
O         48.04931       27.56210       76.42884
C         49.43561       27.34284       79.03647
C         50.36246       27.86560       80.15328
C         51.16170       29.07293       79.73585
N         52.08008       28.98330       78.74507
O         50.99928       30.13555       80.31651
H         47.55623       28.00626       80.67472
H         48.72566       29.28262       78.33110
H         50.05187       27.11563       78.13925
H         48.98299       26.38606       79.38018
H         51.08007       27.06580       80.43619
H         49.76435       28.10241       81.05741
H         52.25088       28.08901       78.26260
H         52.63931       29.80535       78.47341
N         46.19127       27.27509       77.66078
C         45.39756       26.64243       76.60738
C         45.07937       25.18977       76.94799
O         44.45146       24.53057       76.12845
C         44.09131       27.44135       76.33247
C         44.40655       28.85268       75.82597
C         43.15514       27.51401       77.55374
H         45.74129       27.35227       78.57953
H         45.97638       26.61115       75.65798
H         43.53981       26.92025       75.51785
H         43.46336       29.37645       75.56501
H         44.94145       29.44348       76.59694
H         45.03659       28.80144       74.91271
H         43.61908       28.07187       78.39192
H         42.21431       28.03675       77.27983
H         42.88659       26.49521       77.90415
N         45.51514       24.60635       78.10221
C         45.35106       23.19171       78.40129
C         44.66661       22.94445       79.74210
O         43.88808       22.00530       79.82198
C         46.74463       22.53351       78.43231
C         47.50725       22.72008       77.14137
N         47.03791       22.22441       75.97238
O         48.56921       23.32475       77.15591
H         46.07553       25.15547       78.76631
H         44.76727       22.66805       77.61143
H         46.64304       21.44378       78.63015
H         47.33303       22.98608       79.25670
H         46.14963       21.70500       75.93417
H         47.56912       22.35920       75.09891
N         45.00396       23.65551       80.86282
C         44.66444       23.22366       82.21826
C         43.82622       24.23152       82.98264
O         44.18769       25.39789       83.01375
C         45.98220       23.00763       82.99214
C         46.91332       22.07752       82.25249
C         46.52782       20.75824       81.96560
C         48.17070       22.53529       81.82131
C         47.37994       19.91542       81.24821
C         49.02260       21.68949       81.10638
C         48.62997       20.37980       80.81368
O         49.45741       19.58000       80.11223
H         45.63202       24.46633       80.77927
H         44.12327       22.25372       82.20139
H         45.76625       22.59598       84.00153
H         46.48101       23.99418       83.12967
H         45.56392       20.38487       82.28686
H         48.48857       23.55081       82.02475
H         47.06457       18.90420       81.02647
H         49.98431       22.05710       80.77148
H         49.21894       18.67080       79.88169
N         42.77311       23.79287       83.74534
C         41.98468       24.59517       84.68492
C         40.88785       25.40562       84.02234
O         39.75253       25.29150       84.46782
C         42.83181       25.44463       85.65974
C         43.79858       24.57591       86.48011
C         44.51910       25.39515       87.51186
O         43.82394       26.03154       88.47477
O         45.73703       25.47169       87.49705
H         42.58138       22.77969       83.75419
H         41.44052       23.87760       85.34407
H         42.13101       25.94631       86.36495
H         43.38858       26.24421       85.12977
H         44.53443       24.09329       85.80157
H         43.23264       23.77871       87.00920
N         41.11705       26.23994       82.96869
C         40.05351       27.05944       82.39108
C         38.90908       26.22900       81.81300
O         37.89110       26.81687       81.47308
C         40.56752       27.98133       81.26182
C         41.81424       28.81920       81.56396
C         41.73267       29.69307       82.77748
O         41.73935       29.19698       83.89243
O         41.81166       31.02818       82.64564
H         42.06494       26.31263       82.59367
H         39.65233       27.69340       83.21326
H         39.74383       28.67045       80.97031
H         40.82114       27.35808       80.37489
H         42.00072       29.44500       80.67126
H         42.70352       28.17010       81.68055
N         39.00689       24.87692       81.63895
C         37.94405       24.06385       81.08538
H         37.04158       24.65715       80.83017
H         38.30938       23.56508       80.16344
H         37.65618       23.28710       81.82423
H         39.87379       24.38061       81.88531
Ca        43.34504       32.09305       83.90176
O         43.34923       34.17543       86.79461
H         44.00717       33.64271       87.30777
H         43.30177       35.04026       87.27423
O         40.97068       32.20602       85.99788
H         41.16214       31.28160       85.70060
H         40.02906       32.35859       85.73400
O         44.79443       35.68149       84.00148
H         45.74607       35.95337       83.98988
H         44.32590       36.45364       84.40612

Ca 1.0



