%chk=apoCaM-CA-Ng.loop2.water4.frame1463.chk
%nprocshared=20
%mem=10GB
%nosave
#b3lyp/svp scf=(tight,noincore,xqc) Test 
#IOP(5/87=12) Density=Current Pop=(MK,readradii) iop(6/33=2) iop(6/42=6)

apoCaM-CA-Ng.loop2.water4.frame1463 

   -2  1 
C         61.32245       79.89904       79.87706
C         62.38771       79.51329       78.88061
O         63.16415       78.61925       79.18253
H         60.31599       79.71796       79.44747
H         61.40507       79.28294       80.79660
H         61.41551       80.96584       80.16386
N         62.49605       80.09819       77.65102
C         61.58779       81.13709       77.17287
C         62.24319       82.20817       76.28130
O         61.58987       83.21649       76.05032
C         60.35721       80.48190       76.51477
C         60.72410       79.60208       75.35942
O         60.38826       78.42952       75.31998
O         61.38583       80.15294       74.34028
H         63.18125       79.68471       77.00375
H         61.22034       81.71597       78.04426
H         59.67027       81.27736       76.15558
H         59.80337       79.87332       77.25701
N         63.49580       82.08660       75.74379
C         64.14293       83.13418       74.95051
C         63.30470       83.57039       73.75584
O         63.07458       84.76293       73.61026
C         65.52641       82.66078       74.47419
H         64.03355       81.22604       75.89918
H         64.31579       84.02092       75.60137
H         66.04689       83.47418       73.92349
H         66.15573       82.38503       75.34840
H         65.43976       81.77593       73.80784
N         62.81896       82.66120       72.86361
C         62.06395       83.01717       71.66109
C         60.61008       82.52930       71.69376
O         59.95369       82.56690       70.66234
C         62.86493       82.57351       70.41225
C         63.29544       81.12549       70.36776
O         64.48553       80.85651       70.39137
O         62.41209       80.11661       70.28803
H         63.00810       81.66420       73.03635
H         61.97431       84.12240       71.55824
H         63.79466       83.18597       70.40947
H         62.30632       82.82553       69.48625
N         59.99433       82.21491       72.87098
C         58.57686       81.89758       73.00076
C         58.18747       80.57469       72.37635
O         58.74289       79.55405       72.75086
H         60.52812       82.29255       73.74513
H         57.97134       82.73429       72.58930
H         58.33243       81.81889       74.08208
N         57.18207       80.51285       71.45829
C         56.69544       79.26419       70.87493
C         57.48630       78.92895       69.63766
O         57.70065       79.79566       68.80040
C         55.19107       79.35411       70.55935
C         54.38133       79.38722       71.83379
N         53.58191       80.43539       72.13136
O         54.44431       78.44124       72.60628
H         56.71722       81.39096       71.17899
H         56.81377       78.42167       71.59334
H         54.87398       78.44729       69.99805
H         54.98858       80.23935       69.91730
H         53.51030       81.24408       71.49865
H         53.03361       80.43582       73.00480
N         57.94271       77.65742       69.45272
C         58.79957       77.28481       68.34452
C         60.19331       77.83433       68.55997
O         60.42019       78.46659       69.57975
H         57.68055       76.92037       70.12509
H         58.34835       77.62964       67.38879
H         58.89086       76.17697       68.31574
N         61.21841       77.61852       67.69121
C         61.10193       76.92283       66.41945
C         61.91138       75.63823       66.46703
O         61.33488       74.59065       66.20802
C         61.53569       77.87547       65.28374
C         61.31247       77.25338       63.90050
O         60.77392       79.05378       65.37355
H         62.14574       77.99305       67.94668
H         60.04620       76.64616       66.21256
H         62.61657       78.11611       65.41743
H         61.29223       79.77220       64.92535
H         60.23558       77.01743       63.75507
H         61.62078       77.97288       63.11233
H         61.90721       76.32494       63.78059
N         63.23354       75.62953       66.82540
C         64.03018       74.39867       66.89485
C         64.39505       74.10378       68.35236
O         64.24123       75.00002       69.17044
C         65.29186       74.51676       65.97338
C         66.41077       75.38573       66.61300
C         64.88476       75.03727       64.58017
C         67.70622       75.40595       65.80037
H         63.68702       76.51929       67.07934
H         63.41016       73.55653       66.52552
H         65.72444       73.50910       65.83467
H         66.68479       74.94708       67.59688
H         66.06162       76.42559       66.78252
H         64.51867       76.08552       64.64359
H         65.73823       75.01478       63.87443
H         64.07959       74.40478       64.15182
H         68.48568       75.95999       66.36482
H         68.06894       74.36922       65.62906
H         67.56426       75.91564       64.82726
N         64.88206       72.90885       68.80512
C         64.93320       71.65626       68.05402
C         66.06461       70.76023       68.56383
O         66.80837       71.16766       69.44521
C         63.55346       70.95759       68.12921
C         63.13555       70.59705       69.52968
O         62.94493       69.42943       69.82903
O         62.93056       71.55868       70.45007
H         65.05570       72.84977       69.82177
H         65.13852       71.84089       66.98762
H         63.56774       70.04064       67.50379
H         62.77679       71.62093       67.69528
N         66.23969       69.50373       68.06178
C         67.28712       68.60573       68.54306
C         68.65529       69.05407       68.03788
O         68.69893       69.63187       66.96156
C         67.01510       67.11642       68.19391
C         66.92978       66.75219       66.72430
C         68.02626       66.14793       66.08257
C         65.73783       66.93938       65.99623
C         67.93887       65.76337       64.73990
C         65.65531       66.55271       64.65561
C         66.75522       65.96744       64.02682
H         65.58103       69.17424       67.35316
H         67.25490       68.63899       69.64770
H         66.08139       66.77295       68.69018
H         67.82487       66.51544       68.65677
H         68.94928       65.97272       66.62091
H         64.85769       67.35987       66.46182
H         68.78706       65.30000       64.25304
H         64.73288       66.69724       64.10726
H         66.68611       65.66314       62.99020
N         69.83105       68.79350       68.70313
C         69.99551       68.11580       69.98404
C         69.29995       68.79849       71.13936
O         68.63479       68.12080       71.90793
C         71.51095       68.15538       70.23321
C         72.05532       68.11524       68.82759
C         71.12749       69.10339       68.12956
H         69.67321       67.05680       69.88226
H         71.81297       69.14421       70.65025
H         71.88013       67.36310       70.92003
H         73.13742       68.34743       68.73636
H         71.86627       67.09721       68.41496
H         71.38975       70.15435       68.38710
H         71.18036       68.94235       67.03186
N         69.40849       70.14852       71.31900
C         68.81555       70.82375       72.46299
C         69.72336       70.58147       73.66774
O         70.83539       71.09078       73.63508
C         68.67542       72.33753       72.16874
C         67.90214       73.09402       73.26301
C         67.70303       74.55334       72.93416
O         67.02067       75.33568       73.79147
O         68.14121       75.03890       71.90192
H         69.91280       70.70648       70.61335
H         67.77967       70.45464       72.57374
H         68.10972       72.45347       71.22011
H         69.67857       72.79659       72.02391
H         68.44570       73.02022       74.22831
H         66.89832       72.63150       73.38151
N         69.40821       69.81147       74.75129
C         68.19313       69.05059       74.95416
H         67.45739       69.14226       74.14161
H         68.45939       67.97528       75.04271
H         67.71239       69.37383       75.89955
H         70.11957       69.72310       75.49435
Ca        61.54216       79.47614       72.23167
O         64.76385       78.20372       72.70752
H         64.12321       78.53304       72.02940
H         65.25566       77.47783       72.24770
O         62.01824       76.24885       70.95802
H         62.62885       76.77496       70.38285
H         61.64934       75.55166       70.35938
O         59.40113       76.60281       73.01415
H         59.04091       75.76119       72.63785
H         58.75408       76.85430       73.72038
O         62.91982       76.00549       73.99892
H         63.37911       75.52755       73.26324
H         63.65410       76.33004       74.57849

Ca 1.0



