%chk=apoCaM-CA-Ng.loop2.water5.frame78.chk
%nprocshared=20
%mem=10GB
%nosave
#b3lyp/svp scf=(tight,noincore,xqc) Test 
#IOP(5/87=12) Density=Current Pop=(MK,readradii) iop(6/33=2) iop(6/42=6)

apoCaM-CA-Ng.loop2.water5.frame78 

   -2  1 
C         34.81303       58.62425       56.43263
C         34.61062       58.11398       57.82799
O         35.58592       57.81248       58.50130
H         35.89383       58.66471       56.17852
H         34.30077       57.95193       55.71273
H         34.38621       59.64545       56.34533
N         33.34856       57.99224       58.32563
C         33.05254       57.50284       59.66609
C         32.28506       56.19016       59.60533
O         32.75055       55.23470       60.21154
C         32.39756       58.59431       60.55192
C         31.11877       59.25908       60.10499
O         30.58680       59.00396       59.04045
O         30.56800       60.19606       60.89964
H         32.56283       58.25653       57.71393
H         33.99925       57.26991       60.20627
H         33.14231       59.41091       60.67514
H         32.21985       58.15101       61.55604
N         31.14561       56.03380       58.86260
C         30.40855       54.77624       58.76363
C         31.23831       53.65752       58.13845
O         30.83151       52.50789       58.22906
C         29.83089       54.38413       60.13225
H         30.78461       56.81886       58.31095
H         29.52919       54.92485       58.09806
H         30.62266       54.16864       60.87637
H         29.19273       55.20995       60.51407
H         29.19132       53.48101       60.03196
N         32.38243       53.92683       57.43774
C         33.22120       52.92475       56.79134
C         33.85024       52.00827       57.82999
O         33.74154       50.79324       57.73344
C         32.43112       52.19853       55.67245
C         33.29110       51.25473       54.88661
O         32.96840       49.95013       54.80285
O         34.28596       51.66641       54.31902
H         32.68810       54.90392       57.32631
H         34.06262       53.46647       56.30169
H         32.02611       52.96120       54.97162
H         31.57541       51.63081       56.09100
N         34.52833       52.55513       58.87879
C         35.14952       51.76272       59.92521
C         36.51623       51.21986       59.55099
O         37.09636       50.53431       60.38121
H         34.54837       53.58110       58.97757
H         34.45973       50.94664       60.23577
H         35.30811       52.41184       60.81259
N         37.11639       51.49018       58.35282
C         38.44552       50.98762       58.01161
C         39.50249       51.58980       58.93396
O         39.64932       52.80334       58.97932
C         38.77115       51.28860       56.53232
C         40.05416       50.64979       56.04148
N         40.41449       50.78054       54.74558
O         40.76386       50.00141       56.79678
H         36.61418       52.05595       57.65335
H         38.42331       49.87844       58.11096
H         38.81671       52.38741       56.36701
H         37.94507       50.87840       55.91419
H         39.82269       51.30633       54.08890
H         41.28066       50.34583       54.39492
N         40.27277       50.77287       59.70271
C         41.28246       51.22850       60.64454
C         42.46971       51.90827       59.99251
O         43.03722       51.34853       59.06510
H         40.11803       49.75456       59.64381
H         41.68896       50.32842       61.15559
H         40.82091       51.86965       61.42544
N         42.97699       53.06292       60.52212
C         44.27426       53.61236       60.11113
C         44.20455       54.45957       58.84848
O         45.26123       54.79532       58.32676
C         44.97360       54.37914       61.27056
C         44.24105       55.64881       61.73351
O         45.20905       53.52064       62.35980
H         42.51479       53.44122       61.36023
H         44.94443       52.75142       59.88733
H         45.97122       54.70803       60.90398
H         44.34005       53.32975       62.79854
H         44.82877       56.14679       62.53329
H         44.14180       56.36010       60.89513
H         43.23282       55.42316       62.13574
N         43.02175       54.85104       58.29869
C         42.91907       55.60220       57.04857
C         42.15147       54.76985       56.03286
O         41.84227       53.61574       56.31579
C         42.28919       57.01642       57.27778
C         40.83589       56.94705       57.80749
C         43.20002       57.86806       58.17581
C         40.12916       58.30492       57.78514
H         42.14150       54.58932       58.76832
H         43.92209       55.78290       56.60044
H         42.27103       57.54414       56.30391
H         40.81793       56.53443       58.83831
H         40.24181       56.27566       57.15272
H         44.22740       57.90491       57.75269
H         42.84233       58.91503       58.23902
H         43.24395       57.44811       59.19541
H         39.08088       58.18185       58.12844
H         40.62269       59.03669       58.45480
H         40.11316       58.70856       56.74918
N         41.77128       55.29938       54.83847
C         40.97914       54.57752       53.85989
C         41.53915       54.77012       52.44373
O         40.92761       54.30106       51.49933
C         39.52086       55.05233       54.03764
C         38.46916       54.18086       53.40878
O         38.75598       53.20284       52.73766
O         37.17769       54.44448       53.67091
H         41.95024       56.29584       54.64967
H         40.98495       53.49057       54.09322
H         39.40820       56.10726       53.70727
H         39.29639       55.00849       55.12717
N         42.73030       55.41761       52.22669
C         43.31671       55.60026       50.90299
C         42.48175       56.58145       50.08306
O         42.40772       57.73000       50.48701
C         44.74672       56.17732       51.05160
C         45.44775       56.33383       49.72655
C         45.81736       55.20134       48.98328
C         45.74572       57.61341       49.22691
C         46.47782       55.34734       47.76021
C         46.39752       57.75507       47.99885
C         46.76572       56.62301       47.26719
H         43.27910       55.75155       53.02823
H         43.39501       54.60102       50.43109
H         45.36525       55.52167       51.70241
H         44.67322       57.16329       51.56383
H         45.60370       54.20754       49.35647
H         45.46659       58.50086       49.78171
H         46.76773       54.47102       47.19561
H         46.61837       58.74290       47.61560
H         47.27515       56.73444       46.31913
N         41.86031       56.24218       48.91050
C         41.10232       57.17231       48.07952
C         40.07390       58.02550       48.81714
O         40.14242       59.24154       48.70271
C         40.43274       56.25564       47.04689
C         41.49711       55.20142       46.85010
C         41.94672       54.93764       48.28477
H         41.83610       57.84096       47.57327
H         39.55829       55.73764       47.50087
H         40.10020       56.77210       46.12135
H         41.18892       54.29493       46.28779
H         42.33968       55.68662       46.30320
H         41.27235       54.23671       48.82183
H         42.98217       54.53688       48.23892
N         39.08784       57.46810       49.57936
C         38.04917       58.26000       50.25361
C         38.59140       59.22891       51.29329
O         37.84987       60.12270       51.67834
C         37.02284       57.32696       50.92527
C         36.10356       56.68191       49.87655
C         35.30750       55.53774       50.42160
O         34.49647       54.97400       49.70723
O         35.57206       55.03952       51.63885
H         39.06253       56.44037       49.65621
H         37.53377       58.88172       49.48667
H         36.36389       57.87880       51.63262
H         37.59270       56.57174       51.51341
H         36.69488       56.27319       49.03112
H         35.41970       57.46725       49.48710
N         39.84811       59.12310       51.80046
C         40.41473       60.06957       52.73996
H         41.33738       60.50558       52.30165
H         39.72027       60.90379       52.97458
H         40.67438       59.54658       53.68302
H         40.43157       58.33030       51.52488
Ca        35.04243       52.89213       52.01544
O         37.86213       53.67271       49.68562
H         38.45107       53.12497       49.10902
H         38.48325       54.17351       50.26989
O         37.51630       50.60969       50.68516
H         37.50036       50.70181       49.69981
H         38.22647       49.94214       50.85969
O         36.75466       50.21533       53.59019
H         36.16714       49.74480       54.23337
H         37.59343       49.68974       53.59256
O         35.03243       52.42139       48.75713
H         35.29047       51.47034       48.67384
H         35.66986       52.90747       48.17581
O         33.29232       50.76020       50.84230
H         33.10065       50.50859       51.78043
H         32.92333       51.67481       50.75096

Ca 1.0



