%chk=apoCaM-CA-Ng.loop1.water1.frame870.chk
%nprocshared=20
%mem=10GB
%nosave
#b3lyp/svp scf=(tight,noincore,xqc) Test 
#IOP(5/87=12) Density=Current Pop=(MK,readradii) iop(6/33=2) iop(6/42=6)

apoCaM-CA-Ng.loop1.water1.frame870 

   0  1 
C         44.53911       -3.15218       18.04573
C         43.12474       -2.86650       17.63225
O         42.77458       -3.14148       16.49369
H         45.23857       -2.57279       17.40809
H         44.71764       -2.87239       19.10600
H         44.74606       -4.23607       17.92980
N         42.24900       -2.31491       18.51758
C         40.84866       -2.02753       18.20188
C         40.68064       -1.09285       16.99608
O         41.66022       -0.57903       16.47298
C         40.09437       -1.57775       19.47597
C         40.71850       -0.42337       20.21425
O         41.80656        0.20872       19.73408
O         40.21163       -0.03486       21.25491
H         42.59424       -2.12939       19.47130
H         40.38154       -2.98639       17.88652
H         40.08706       -2.43792       20.17960
H         39.03844       -1.33321       19.23036
N         39.45135       -0.98167       16.40689
C         39.26797       -0.49505       15.03648
C         39.50920        0.98522       14.80410
O         39.45807        1.37657       13.64431
C         37.83665       -0.83761       14.52933
C         36.74738        0.10878       15.08451
C         35.34520       -0.29880       14.61160
C         34.26581        0.74286       14.96657
N         34.39494        1.96973       14.17129
H         38.65471       -1.44859       16.86617
H         39.98210       -1.07235       14.40649
H         37.60651       -1.89820       14.77095
H         37.81568       -0.74039       13.42048
H         36.96851        1.12765       14.71260
H         36.76717        0.12897       16.19550
H         35.09475       -1.26383       15.10323
H         35.32841       -0.45538       13.51123
H         34.29845        0.98218       16.05262
H         33.27229        0.29490       14.74533
H         35.28553        2.47223       14.37849
H         34.34835        1.74153       13.15094
H         33.60193        2.61116       14.40063
N         39.66215        1.88066       15.82357
C         39.59606        3.32290       15.59062
C         40.92725        4.03120       15.78866
O         41.81989        3.44754       16.38151
C         38.42743        3.92521       16.40256
C         38.47580        3.94866       17.91687
O         37.54042        4.48302       18.48938
O         39.45378        3.44054       18.69442
H         39.71140        1.53545       16.78747
H         39.33507        3.48578       14.53123
H         37.50094        3.38533       16.10867
H         38.28684        4.97483       16.10391
N         41.19797        5.27290       15.27405
C         40.31902        6.06782       14.42228
C         40.06207        5.41683       13.07999
O         40.92181        4.69896       12.58777
H         42.12646        5.67932       15.46990
H         40.81372        7.03775       14.20453
H         39.37853        6.33682       14.93331
N         38.88620        5.64272       12.42661
C         38.56091        5.07622       11.11795
C         38.29842        6.17786       10.10414
O         38.12141        7.32642       10.48878
C         37.38075        4.08206       11.21771
C         36.15160        4.63774       11.89403
O         36.18586        4.97408       13.19893
O         35.09907        4.72360       11.28349
H         38.19825        6.26665       12.87315
H         39.43286        4.50628       10.72867
H         37.70366        3.19593       11.80476
H         37.12238        3.73003       10.19455
N         38.34332        5.90519        8.76367
C         38.19782        6.93591        7.74261
C         39.28776        7.99969        7.79117
O         39.16858        8.98108        7.07360
H         38.50650        4.93526        8.45209
H         37.20888        7.42227        7.87960
H         38.21709        6.47389        6.73077
N         40.37284        7.87503        8.60859
C         41.39621        8.89621        8.79313
C         41.40001        9.34735       10.24900
O         40.56864        8.91202       11.03194
C         42.77775        8.39971        8.27195
C         43.14457        6.97960        8.70325
O         42.78362        8.45021        6.86911
H         40.48912        7.02022        9.16648
H         41.15726        9.82059        8.22172
H         43.59486        9.05721        8.64216
H         42.99428        9.39123        6.62049
H         43.13261        6.88219        9.80767
H         42.44003        6.24702        8.25378
H         44.15980        6.73247        8.32575
N         42.29151       10.29283       10.64912
C         42.26700       10.95656       11.94767
C         42.14071       12.46498       11.77309
O         41.95477       13.13267       12.78496
C         43.51465       10.58055       12.79856
C         44.82254       10.71950       11.97466
C         43.33600        9.16116       13.36603
C         46.09929       10.51042       12.78340
H         43.00799       10.59320        9.98051
H         41.35655       10.66102       12.51656
H         43.55676       11.26484       13.67646
H         44.86832       11.73895       11.53440
H         44.82629        9.97701       11.14712
H         44.16697        8.89094       14.04705
H         42.40603        9.11719       13.97481
H         43.26406        8.40954       12.55299
H         46.97417       10.63387       12.11007
H         46.16476       11.26094       13.59768
H         46.14818        9.48822       13.20878
N         42.20071       13.08152       10.55108
C         41.95892       14.50112       10.36692
C         43.21803       15.19774        9.88525
O         44.20846       14.54996        9.56769
C         40.79781       14.70055        9.35480
C         39.57399       13.84357        9.70358
O         40.41874       16.05189        9.31709
H         42.39127       12.55108        9.69141
H         41.67399       14.96182       11.33946
H         41.16330       14.38161        8.34960
H         39.89461       16.18499        8.48474
H         39.83215       12.76300        9.67375
H         39.18951       14.09972       10.71209
H         38.77443       14.01106        8.95161
N         43.24761       16.55081        9.87118
C         44.38766       17.36350        9.48794
C         44.99027       17.94697       10.74706
O         46.18035       17.75688       10.95893
C         43.96301       18.41367        8.40373
C         44.80239       19.69799        8.40620
O         42.61401       18.78458        8.54411
H         42.42028       17.04780       10.23310
H         45.20409       16.75274        9.03557
H         44.09315       17.89581        7.42101
H         42.25072       18.90397        7.62481
H         44.49824       20.34892        7.55838
H         44.59918       20.26861        9.33748
H         45.88703       19.48516        8.33515
N         44.24360       18.67002       11.62401
C         44.82921       19.36150       12.76212
C         44.20104       18.93840       14.07715
O         43.00618       18.68330       14.13207
C         44.65341       20.85348       12.48484
C         45.36549       21.78058       13.47615
C         45.43381       23.21373       12.92100
C         44.05624       23.85785       12.69181
N         44.20022       25.16837       12.06137
H         43.23976       18.80924       11.43463
H         45.92410       19.17372       12.82308
H         43.56940       21.08851       12.43069
H         45.10819       21.03415       11.48675
H         46.41574       21.43448       13.59738
H         44.86862       21.74970       14.46963
H         45.98363       23.18276       11.95363
H         46.01905       23.84452       13.62349
H         43.53003       23.95864       13.66620
H         43.43331       23.23113       12.02045
H         44.78476       25.79768       12.65661
H         44.64501       25.05847       11.11996
H         43.25321       25.59232       11.93396
N         44.96305       18.93881       15.20864
C         44.43413       18.65866       16.53917
C         43.98666       17.20721       16.68370
O         42.81499       17.01471       16.97627
C         45.44058       19.05613       17.64965
C         45.73357       20.56840       17.63280
C         46.73552       20.94176       18.68568
O         47.86533       20.48010       18.64939
O         46.40144       21.80786       19.66090
H         45.95135       19.21884       15.12122
H         43.54482       19.31036       16.70365
H         46.39171       18.49973       17.55110
H         45.00395       18.80294       18.64160
H         44.78634       21.12396       17.80890
H         46.14224       20.88345       16.65072
N         44.79798       16.11593       16.53408
C         46.19514       16.12204       16.15035
H         46.80347       15.68217       16.96887
H         46.32206       15.49964       15.24055
H         46.58742       17.12163       15.91239
H         44.38444       15.18504       16.70128
Ca        41.20696        2.04777       18.65260
O         44.23043        1.49084       17.16878
H         43.71605        1.48243       16.32290
H         45.09689        1.07316       16.93431

Ca 1.0



