%chk=apoCaM-CA-Ng.loop2.water4.frame1403.chk
%nprocshared=20
%mem=10GB
%nosave
#b3lyp/svp scf=(tight,noincore,xqc) Test 
#IOP(5/87=12) Density=Current Pop=(MK,readradii) iop(6/33=2) iop(6/42=6)

apoCaM-CA-Ng.loop2.water4.frame1403 

   -2  1 
C         31.60840       86.22919       77.57150
C         31.05712       85.00030       76.90195
O         31.72946       84.48489       76.01833
H         32.59985       86.48992       77.13952
H         30.93047       87.09421       77.43500
H         31.75914       86.03072       78.65313
N         29.87314       84.41675       77.25763
C         28.98860       84.91225       78.31504
C         27.49714       84.68777       78.02798
O         26.69559       85.17826       78.81877
C         29.37546       84.24158       79.65453
C         29.13280       82.74510       79.62856
O         30.14750       81.85853       79.71386
O         27.99670       82.32373       79.50076
H         29.66581       83.51023       76.82502
H         29.13044       86.01032       78.41243
H         28.78441       84.69237       80.48329
H         30.44584       84.45321       79.85980
N         27.03432       83.93927       76.98083
C         25.62618       83.66342       76.73310
C         25.29355       82.16505       76.75053
O         24.13589       81.83883       76.54929
C         25.26626       84.27090       75.37580
H         27.68886       83.53277       76.29986
H         24.98407       84.14210       77.50557
H         25.45103       85.36636       75.40503
H         25.90061       83.82766       74.57686
H         24.19868       84.09992       75.12812
N         26.24570       81.20110       76.96304
C         25.95671       79.76171       76.93694
C         26.45239       79.06293       78.19288
O         27.04955       79.69823       79.04339
C         26.60210       79.12819       75.67768
C         28.10772       79.22916       75.57061
O         28.66754       78.74524       74.60069
O         28.85078       79.83565       76.51466
H         27.21782       81.48777       77.11094
H         24.86287       79.58288       76.86703
H         26.16101       79.61553       74.78299
H         26.33482       78.05087       75.63244
N         26.25899       77.72061       78.35165
C         26.93448       76.94960       79.37870
C         28.31531       76.52439       78.85281
O         29.11674       77.58136       78.35615
H         25.71483       77.19932       77.64984
H         26.36124       76.01019       79.54392
H         26.96826       77.49170       80.34838
N         29.04607       75.60122       79.74322
C         30.38523       75.22329       79.22316
C         30.46127       73.83692       78.56828
O         29.61069       72.99275       78.81640
C         31.38519       75.29454       80.39327
C         32.80233       75.43038       79.89967
N         33.69617       74.42777       80.03328
O         33.14291       76.46700       79.35181
H         28.45404       74.76410       79.95571
H         30.70157       75.95612       78.46391
H         31.24670       74.39864       81.04036
H         31.18101       76.18763       81.02477
H         33.42724       73.53151       80.46121
H         34.65356       74.54327       79.66856
N         31.53861       73.51117       77.79021
C         31.78485       72.16442       77.29236
C         30.85166       71.75720       76.17950
O         30.17571       72.61687       75.63075
H         32.25295       74.22864       77.59875
H         31.73584       71.46081       78.14670
H         32.80865       72.11658       76.86280
N         30.75497       70.46629       75.74215
C         31.35836       69.29461       76.39228
C         32.88590       69.27726       76.46180
O         33.40354       68.62410       77.35737
C         30.90535       67.98152       75.69106
C         29.40381       67.70591       75.84770
O         31.23956       68.04115       74.32643
H         30.12738       70.30281       74.93871
H         30.98705       69.25444       77.44096
H         31.43883       67.12905       76.17518
H         31.30204       67.10758       73.99584
H         29.14540       67.61561       76.92410
H         28.78279       68.50312       75.39186
H         29.15064       66.74323       75.35256
N         33.66717       69.82959       75.49451
C         35.10984       69.56171       75.38187
C         35.91806       70.59459       76.17172
O         35.56987       71.76389       76.09106
C         35.49124       69.50429       73.87277
C         34.70013       68.38926       73.12238
C         37.00210       69.33618       73.63805
C         34.96642       66.95325       73.60450
H         33.19287       70.31988       74.72064
H         35.31915       68.56360       75.79853
H         35.21067       70.48034       73.41741
H         34.94817       68.44051       72.04117
H         33.61076       68.57806       73.21131
H         37.56233       70.17099       74.10301
H         37.38636       68.38542       74.05309
H         37.21567       69.35316       72.54844
H         34.36164       66.24495       73.00097
H         36.03233       66.67550       73.47959
H         34.67254       66.81000       74.66405
N         36.98721       70.28515       76.98466
C         37.63017       68.97164       77.11692
C         39.16250       69.04194       77.11171
O         39.73681       69.97955       77.64698
C         37.19871       68.24902       78.40974
C         37.57103       68.98833       79.66664
O         38.45566       68.44854       80.52725
O         37.06836       70.07082       79.91986
H         37.38672       71.05589       77.54253
H         37.32674       68.29984       76.29741
H         37.69848       67.25263       78.42504
H         36.10365       68.06917       78.40177
N         39.86529       67.94922       76.69069
C         41.28643       67.69458       76.94135
C         42.05095       67.57862       75.62981
O         41.59612       66.83878       74.76744
C         41.37913       66.33219       77.67572
C         42.78679       65.82296       77.91854
C         43.28507       64.76425       77.13510
C         43.60019       66.36171       78.93087
C         44.56774       64.25742       77.35508
C         44.88221       65.83999       79.15699
C         45.36449       64.79022       78.36910
H         39.33447       67.18708       76.24034
H         41.72770       68.46828       77.59737
H         40.85257       65.58668       77.03995
H         40.82844       66.36238       78.64088
H         42.68236       64.33327       76.34559
H         43.23860       67.16869       79.55491
H         44.94035       63.44648       76.74177
H         45.50311       66.24364       79.94647
H         46.35391       64.38612       78.54432
N         43.26595       68.18143       75.42070
C         43.99813       69.00835       76.37085
C         43.30875       70.31088       76.67523
O         43.24183       70.69954       77.83280
C         45.32762       69.30695       75.66007
C         45.50378       68.07898       74.79831
C         44.08854       67.89892       74.26108
H         44.21287       68.41933       77.28782
H         45.21145       70.16205       74.95521
H         46.16881       69.54028       76.34932
H         46.28890       68.17005       74.01797
H         45.74565       67.21853       75.46357
H         43.86871       68.65807       73.47719
H         43.96291       66.87167       73.85772
N         42.79349       71.05441       75.65668
C         42.29944       72.40334       75.85057
C         43.51846       73.31513       75.92792
O         44.19751       73.42669       74.91577
C         41.38832       72.81747       74.67363
C         40.07587       72.01462       74.67294
C         39.20553       72.40651       73.51547
O         39.57695       72.20374       72.37044
O         38.00197       72.96947       73.73564
H         42.82201       70.67247       74.69861
H         41.65956       72.42924       76.74803
H         41.92883       72.67188       73.71041
H         41.12995       73.89463       74.76907
H         39.53267       72.22208       75.62133
H         40.27435       70.92230       74.61735
N         43.93815       73.96530       77.05382
C         43.33115       73.91159       78.36907
H         42.40053       73.32901       78.42603
H         44.05388       73.45275       79.07654
H         43.10649       74.94253       78.70941
H         44.80223       74.52547       76.98391
Ca        29.70832       79.62246       79.33177
O         29.12916       79.62825       82.04716
H         28.37780       80.24916       81.87163
H         28.70210       78.74072       82.14636
O         32.34068       79.64767       80.46759
H         32.46846       78.68194       80.64079
H         32.78387       80.09922       81.22814
O         31.61815       78.30289       77.22465
H         32.01768       77.41129       77.35718
H         31.28025       78.27567       76.29519
O         31.63363       81.25929       77.05979
H         31.74719       80.62553       76.31115
H         31.38817       82.09641       76.60275

Ca 1.0



