%chk=apoCaM-CA-Ng.loop3.water6.frame54.chk
%nprocshared=20
%mem=10GB
%nosave
#b3lyp/svp scf=(tight,noincore,xqc) Test 
#IOP(5/87=12) Density=Current Pop=(MK,readradii) iop(6/33=2) iop(6/42=6)

apoCaM-CA-Ng.loop3.water6.frame54 

   0  1 
C         48.21261       42.02892       60.07329
C         47.19144       41.43956       59.14937
O         46.91977       40.25474       59.25023
H         49.05819       42.43747       59.48225
H         47.75004       42.84107       60.67158
H         48.60463       41.25416       60.76819
N         46.58271       42.21372       58.20694
C         45.57252       41.71586       57.27687
C         46.16690       40.61947       56.40428
O         45.71732       39.48160       56.45575
C         44.29338       41.25241       58.02316
C         43.64671       42.32366       58.86834
O         44.12222       43.44546       58.95115
O         42.51705       42.03712       59.54268
H         46.84817       43.20831       58.14143
H         45.26123       42.54612       56.60416
H         44.52045       40.38335       58.66958
H         43.54500       40.92289       57.27032
N         47.19407       40.91129       55.55533
C         47.80714       39.90729       54.68527
C         48.65533       38.88334       55.44327
O         49.15863       37.96529       54.81020
C         48.67851       40.57940       53.59835
C         49.95168       41.25904       54.14140
C         50.79391       41.81643       52.98959
C         52.10932       42.41563       53.50190
N         52.92211       42.90832       52.39055
H         47.50102       41.89366       55.49294
H         46.98440       39.38153       54.15083
H         48.06158       41.32107       53.04461
H         48.98767       39.79304       52.87460
H         50.56602       40.51006       54.68622
H         49.69151       42.07834       54.84458
H         50.21325       42.59406       52.44673
H         51.03315       40.99046       52.28401
H         52.68203       41.63478       54.05131
H         51.89343       43.25170       54.20346
H         52.40950       43.66082       51.87614
H         53.81574       43.29988       52.76609
H         53.14704       42.12411       51.73548
N         48.91884       39.01567       56.77546
C         49.83847       38.15402       57.52071
C         49.40635       36.68062       57.47685
O         48.30776       36.38210       57.02968
C         49.98385       38.76449       58.94782
C         50.87514       38.05316       59.91279
O         50.47274       36.86668       60.37547
O         51.88581       38.57758       60.35171
H         48.50590       39.81285       57.27386
H         50.82886       38.21403       57.01760
H         48.98539       38.81639       59.42910
H         50.35989       39.80481       58.82584
N         50.28340       35.69640       57.83874
C         50.00683       34.26565       57.74647
C         48.90709       33.83382       58.68583
O         47.92089       33.26606       58.23782
H         51.22778       35.96970       58.14751
H         50.92403       33.70574       58.02863
H         49.75649       33.99865       56.69650
N         49.01353       34.09925       60.01767
C         47.99178       33.78728       61.01333
C         46.63795       34.43407       60.69795
O         45.68499       34.09848       61.38873
C         48.43438       34.25555       62.43365
C         49.53361       33.43314       63.15109
N         49.08046       32.07272       63.41651
O         50.77313       33.39668       62.49833
H         49.87139       34.55604       60.32335
H         47.82512       32.68788       61.01733
H         47.56036       34.19624       63.11553
H         48.71933       35.32886       62.39570
H         48.23814       32.11889       64.03484
H         49.82544       31.58358       63.96250
N         46.44639       35.33469       59.68522
C         45.13721       35.87644       59.36337
C         44.63851       36.71026       60.50470
O         43.65587       36.34365       61.13360
H         47.23256       35.64846       59.10977
H         44.44306       35.03567       59.14549
H         45.19620       36.51743       58.45601
N         45.29822       37.85329       60.83259
C         44.97822       38.66009       62.00127
C         46.22256       38.75347       62.87083
O         47.24078       38.17659       62.50540
C         44.41023       40.01807       61.54232
C         43.70803       40.79058       62.63225
C         42.60442       40.22281       63.29615
C         44.12191       42.08659       62.97989
C         41.93597       40.93153       64.29503
C         43.44698       42.79679       63.97960
C         42.35156       42.21956       64.64041
O         41.68840       42.89191       65.60239
H         46.08725       38.14634       60.23744
H         44.19605       38.14471       62.59468
H         43.63160       39.81651       60.77586
H         45.21274       40.61947       61.07113
H         42.25434       39.23100       63.04026
H         44.96222       42.54860       62.47715
H         41.08975       40.47852       64.79669
H         43.77350       43.79591       64.23760
H         41.93490       43.78904       65.86765
N         46.21700       39.39719       64.07242
C         47.35237       39.29333       64.98606
C         47.43883       37.85289       65.51350
O         48.44137       37.50357       66.12001
C         47.24779       40.36338       66.12632
C         47.24506       41.78551       65.49216
C         48.39747       40.24156       67.15208
C         47.01961       42.92319       66.49016
H         45.36946       39.89065       64.38159
H         48.27944       39.52021       64.41365
H         46.28916       40.20655       66.66926
H         46.42561       41.86233       64.75008
H         48.20328       41.96170       64.95512
H         49.38338       40.36746       66.65516
H         48.30191       40.99264       67.95942
H         48.37188       39.26967       67.68040
H         46.05907       42.77753       67.02772
H         47.84864       43.00213       67.22075
H         46.97576       43.88693       65.94008
N         46.42262       36.95242       65.31697
C         46.45436       35.59089       65.83184
C         46.39163       35.54800       67.35219
O         46.48715       34.45414       67.89181
C         45.29517       34.76790       65.23775
O         44.06074       35.31088       65.62123
H         45.58356       37.22708       64.79077
H         47.40097       35.11287       65.49418
H         45.36457       33.71390       65.58734
H         45.38650       34.78481       64.12794
H         43.37298       34.83478       65.08669
N         46.25484       36.68125       68.11507
C         46.22264       36.68963       69.57134
C         47.50518       36.15074       70.19871
O         47.53069       36.02913       71.41589
C         44.98321       35.93261       70.07568
H         46.15677       37.60066       67.66647
H         46.10501       37.74115       69.91858
H         44.90165       36.02231       71.17992
H         44.06731       36.37772       69.63029
H         45.01680       34.85530       69.81901
N         48.60862       35.81768       69.45578
C         49.79715       35.20464       70.03293
C         51.02575       36.07651       69.86343
O         50.97082       37.09783       69.19214
C         50.01419       33.83717       69.37899
H         48.62206       35.97874       68.44028
H         49.65627       35.05039       71.12439
H         50.17798       33.95478       68.28522
H         50.89100       33.31831       69.81846
H         49.11689       33.20084       69.53481
N         52.16725       35.73544       70.53181
C         53.39772       36.51924       70.58667
C         53.12565       38.00060       70.79731
O         53.64336       38.83265       70.06482
C         54.36351       36.17175       69.42787
C         53.88040       36.53097       68.01450
C         54.92822       36.16312       67.00075
O         55.50220       37.11842       66.24499
O         55.27015       34.99935       66.86144
H         52.12779       34.90771       71.14662
H         53.93858       36.18289       71.50002
H         54.56175       35.07702       69.46704
H         55.32781       36.69468       69.61641
H         53.68901       37.62040       67.94072
H         52.94418       35.98842       67.77437
N         52.29805       38.39994       71.80031
C         51.98820       39.79388       72.02788
H         51.27485       39.89001       72.87335
H         52.91581       40.35258       72.27397
H         51.52166       40.23128       71.11894
H         51.85888       37.69294       72.40937
Ca        51.37650       35.50649       61.90619
O         54.53170       37.33125       61.47859
H         55.35445       37.56639       61.97721
H         54.70593       37.63690       60.55319
O         53.32927       34.44619       59.82025
H         53.28308       34.66257       58.85500
H         52.61699       33.77167       59.95790
O         51.85024       35.50971       65.17219
H         51.36819       36.14530       65.75867
H         51.48742       34.62194       65.41776
O         50.09308       37.72588       63.39533
H         50.08758       38.50338       62.78276
H         50.34304       38.10583       64.27381
O         53.06980       38.37353       64.17818
H         52.71807       38.55522       65.08607
H         54.04247       38.24837       64.30969
O         54.44617       34.69061       63.19514
H         55.28553       34.75510       62.67388
H         54.49429       33.80433       63.63396

Ca 1.0



