%chk=apoCaM-CA-Ng.loop1.water2.frame1094.chk
%nprocshared=20
%mem=10GB
%nosave
#b3lyp/svp scf=(tight,noincore,xqc) Test 
#IOP(5/87=12) Density=Current Pop=(MK,readradii) iop(6/33=2) iop(6/42=6)

apoCaM-CA-Ng.loop1.water2.frame1094 

   0  1 
C         61.09025       62.20472       56.80657
C         60.23026       62.43621       58.01110
O         59.21296       61.77156       58.14736
H         62.10078       61.87942       57.12678
H         60.64780       61.42104       56.15399
H         61.17138       63.14555       56.22175
N         60.56535       63.40163       58.91540
C         59.73835       63.72604       60.07482
C         59.08873       65.07739       59.86431
O         59.15825       65.95207       60.71741
C         60.54754       63.60703       61.38885
C         61.72018       64.55292       61.52994
O         61.99526       65.37092       60.66593
O         62.47247       64.50035       62.64487
H         61.41011       63.96244       58.73258
H         58.89797       63.00804       60.14846
H         60.93117       62.56731       61.46753
H         59.86194       63.78440       62.24559
N         58.43995       65.30649       58.69207
C         57.79206       66.56476       58.36439
C         56.51935       66.72550       59.18698
O         56.43740       67.71950       59.89433
C         57.60968       66.71349       56.83342
C         58.99253       66.67773       56.14385
C         58.90175       66.83457       54.62638
C         60.30885       66.82124       54.00722
N         60.24605       66.96805       52.55482
H         58.44928       64.56001       57.98154
H         58.48069       67.39982       58.63218
H         57.13193       67.69475       56.62146
H         56.96553       65.92403       56.40291
H         59.50321       65.71350       56.35522
H         59.62079       67.49934       56.55424
H         58.40155       67.79661       54.38385
H         58.30328       65.99725       54.20544
H         60.82164       65.86439       54.25604
H         60.90868       67.65697       54.43301
H         59.77328       67.86687       52.30542
H         61.21858       66.97884       52.17051
H         59.72455       66.16394       52.13647
N         55.50580       65.80591       59.24894
C         55.43040       64.54381       58.51409
C         55.68426       63.36317       59.42474
O         55.83865       63.53960       60.62489
C         54.10869       64.46800       57.73594
C         52.89677       64.68269       58.59546
O         52.43216       63.72175       59.42335
O         52.26963       65.72283       58.47091
H         54.74197       66.00400       59.91494
H         56.23260       64.47676       57.76988
H         54.00995       63.51904       57.17508
H         54.14214       65.28797       56.98561
N         55.89634       62.13199       58.88025
C         56.41796       61.02843       59.66311
C         55.41210       60.38776       60.57238
O         54.21672       60.52766       60.36751
H         55.83784       62.01683       57.85707
H         57.28822       61.38697       60.24972
H         56.79117       60.22839       58.98890
N         55.86527       59.61023       61.59281
C         55.01153       58.80119       62.45032
C         55.51836       57.35461       62.42540
O         56.70360       57.15428       62.19798
C         55.02324       59.35985       63.88512
C         54.43193       60.74218       63.93544
O         55.17357       61.77909       64.36757
O         53.27262       60.92804       63.59790
H         56.88300       59.57936       61.76192
H         53.96838       58.84648       62.08684
H         56.06509       59.38015       64.27075
H         54.42151       58.71712       64.55898
N         54.72384       56.27407       62.67813
C         53.30717       56.35339       62.96195
C         52.49855       56.81176       61.77303
O         53.01232       56.93320       60.66888
H         55.15875       55.33809       62.69204
H         53.14705       57.03531       63.81951
H         52.92417       55.35233       63.25760
N         51.18888       57.10072       61.96622
C         50.27904       57.54768       60.91962
C         50.80556       58.85728       60.22972
O         50.97987       59.85181       61.21989
C         48.85236       57.66222       61.55491
C         47.69343       57.93938       60.59467
O         48.84935       58.63713       62.56805
H         50.82300       56.98283       62.92476
H         50.23751       56.74524       60.14905
H         48.63510       56.65334       61.98689
H         48.54061       58.20454       63.40653
H         47.74029       58.95921       60.16762
H         47.67346       57.18242       59.78284
H         46.73651       57.87508       61.15553
N         49.88795       59.20899       59.11959
C         50.22829       60.23735       58.11283
C         49.48706       61.52514       58.44993
O         49.61480       62.02724       59.55013
C         51.75384       60.45669       57.81970
C         52.57458       59.16935       57.53022
C         51.92302       61.45612       56.65484
C         52.16655       58.38490       56.28493
H         49.73373       58.32630       58.57661
H         49.80705       59.89419       57.13907
H         52.23277       60.90248       58.69864
H         52.53349       58.48556       58.39814
H         53.64342       59.45929       57.41303
H         52.99701       61.61312       56.42949
H         51.42576       61.08492       55.73372
H         51.47603       62.44091       56.90425
H         52.83296       57.50113       56.18627
H         51.12043       58.02967       56.36697
H         52.28778       58.99762       55.36871
N         48.69286       62.14177       57.53229
C         48.10582       63.45842       57.79019
C         47.09591       63.48657       58.94002
O         46.68764       64.57774       59.31430
C         47.46913       64.04122       56.49893
C         46.24413       63.24536       56.02611
O         48.41711       64.06392       55.46222
H         48.59567       61.71335       56.59982
H         48.94629       64.13265       58.07331
H         47.11918       65.08154       56.69489
H         49.06487       64.78469       55.67751
H         46.50820       62.19401       55.78977
H         45.45016       63.24705       56.80211
H         45.82786       63.71253       55.10864
N         46.59631       62.34841       59.50384
C         45.53012       62.37459       60.50340
C         46.02422       62.89912       61.84580
O         46.85321       62.24747       62.46396
C         44.92263       60.95621       60.67082
C         43.75351       60.93489       61.65918
O         44.44788       60.50083       59.42764
H         46.90615       61.43709       59.13847
H         44.71486       63.02576       60.11484
H         45.70000       60.25955       61.06741
H         45.13520       59.89247       59.04878
H         44.09065       61.22658       62.67425
H         42.95115       61.62692       61.32449
H         43.33586       59.90819       61.72401
N         45.51331       64.05150       62.37729
C         45.80294       64.53671       63.72779
C         47.29273       64.72816       63.94208
O         47.86956       64.08809       64.81182
C         45.15919       63.60768       64.78813
C         43.62755       63.59223       64.65134
C         42.96585       62.69790       65.70634
C         41.43974       62.70105       65.53081
N         40.78843       61.86057       66.53450
H         44.84976       64.60321       61.81313
H         45.32927       65.53508       63.86243
H         45.40845       63.99063       65.80307
H         45.56140       62.57547       64.69783
H         43.34661       63.22802       63.64167
H         43.24377       64.62990       64.76796
H         43.22184       63.07122       66.72239
H         43.34462       61.65763       65.60085
H         41.18519       62.32196       64.51575
H         41.05547       63.74167       65.62245
H         39.75579       61.87110       66.36903
H         41.13254       60.87588       66.45952
H         40.98045       62.23171       67.49326
N         47.97527       65.62353       63.17546
C         49.40945       65.85491       63.30039
C         50.10586       65.43906       62.01004
O         50.81588       64.44672       62.06945
C         49.70684       67.29692       63.75498
C         49.19298       67.55765       65.17826
C         49.50782       68.96134       65.61007
O         50.78689       69.37929       65.67354
O         48.60748       69.72762       65.91350
H         47.44456       66.15456       62.47353
H         49.83203       65.19507       64.09278
H         49.22153       68.02964       63.08534
H         50.80783       67.45585       63.74198
H         49.67764       66.85282       65.88784
H         48.09330       67.39559       65.21521
N         49.97955       66.05362       60.79698
C         49.28812       67.29176       60.51805
H         48.21834       67.23436       60.78076
H         49.79272       68.13226       61.03304
H         49.35621       67.51318       59.43168
H         50.44601       65.60891       59.99749
Ca        51.79657       61.98089       60.75565
O         53.65044       63.83264       62.50549
H         53.49872       63.83775       63.48326
H         54.27799       64.58180       62.35098
O         49.82348       61.58946       63.23526
H         49.25624       61.18193       62.53495
H         49.52111       62.52971       63.26828

Ca 1.0



