%chk=apoCaM-CA-Ng.loop3.water4.frame85.chk
%nprocshared=20
%mem=10GB
%nosave
#b3lyp/svp scf=(tight,noincore,xqc) Test 
#IOP(5/87=12) Density=Current Pop=(MK,readradii) iop(6/33=2) iop(6/42=6)

apoCaM-CA-Ng.loop3.water4.frame85 

   0  1 
C         69.83974       71.94988       88.26045
C         71.04896       72.83832       88.22168
O         71.67016       72.93095       87.17482
H         69.09323       72.30150       87.51824
H         70.13813       70.90937       88.01231
H         69.36759       71.94822       89.26552
N         71.44287       73.52052       89.33829
C         72.60297       74.40950       89.43782
C         73.94966       73.69347       89.36630
O         74.95481       74.36558       89.55155
C         72.54008       75.55281       88.39820
C         71.26025       76.33131       88.50455
O         70.49967       76.39575       87.55191
O         70.95064       76.97002       89.64884
H         70.86557       73.42789       90.18815
H         72.57283       74.87019       90.45119
H         72.64737       75.14651       87.37015
H         73.38602       76.25480       88.56116
N         74.06697       72.35878       89.10383
C         75.35036       71.67042       89.00917
C         75.67855       71.30342       87.57038
O         76.72032       70.69568       87.35916
C         75.37735       70.43303       89.94291
C         74.31109       69.36067       89.62443
C         74.48370       68.07088       90.44824
C         74.34447       68.27812       91.96571
N         74.48336       67.00756       92.67842
H         73.22738       71.80207       88.91613
H         76.17807       72.33561       89.33817
H         75.24606       70.78495       90.98720
H         76.38356       69.96519       89.86434
H         74.39360       69.07438       88.55368
H         73.29122       69.76276       89.79942
H         75.47838       67.62687       90.22609
H         73.70374       67.34924       90.11879
H         73.34839       68.71899       92.19177
H         75.13020       68.97326       92.32989
H         74.39636       67.17892       93.70630
H         73.73293       66.34217       92.38182
H         75.42220       66.58793       92.48593
N         74.86728       71.65582       86.52753
C         75.14509       71.30155       85.14308
C         75.29192       72.56215       84.29053
O         74.91086       73.64181       84.72473
C         74.00613       70.36434       84.68409
C         74.21575       69.70491       83.35532
O         74.23520       70.36231       82.33389
O         74.32852       68.36570       83.28094
H         74.00218       72.18187       86.70461
H         76.10540       70.74418       85.08698
H         73.03834       70.91186       84.68202
H         73.92831       69.54950       85.43714
N         75.91118       72.49873       83.07950
C         76.13015       73.64206       82.20814
C         74.84024       74.20856       81.66605
O         74.61443       75.40332       81.79533
H         76.29353       71.59441       82.76782
H         76.72666       73.30524       81.33326
H         76.71928       74.42354       82.73755
N         73.94965       73.39319       81.03328
C         72.70923       73.85856       80.42108
C         71.47744       73.48083       81.23662
O         70.40133       73.94190       80.87913
C         72.59534       73.39582       78.94392
C         72.62603       71.86395       78.75085
N         72.15012       71.46743       77.42841
O         73.93316       71.39571       78.90796
H         74.15820       72.39035       81.01559
H         72.70066       74.97114       80.40849
H         73.41017       73.84686       78.33593
H         71.63514       73.79300       78.54838
H         71.19825       71.86436       77.25834
H         72.80960       71.80456       76.69077
N         71.54543       72.73203       82.37826
C         70.40412       72.56627       83.26940
C         69.21951       71.84665       82.66190
O         69.30093       71.33496       81.55376
H         72.44658       72.34560       82.68922
H         70.07267       73.58105       83.57928
H         70.71357       72.01682       84.18431
N         68.04189       71.82770       83.35320
C         66.81174       71.23738       82.83196
C         66.87176       69.70755       82.88729
O         67.84657       69.15474       83.37868
C         65.59397       71.85508       83.57569
C         64.25229       71.43669       83.01639
C         63.91649       71.68783       81.66979
C         63.33398       70.75679       83.83191
C         62.70087       71.23214       81.14825
C         62.11750       70.31009       83.30942
C         61.80078       70.53804       81.96305
O         60.63956       70.09215       81.44272
H         68.00509       72.33507       84.25132
H         66.72017       71.54425       81.76693
H         65.65502       72.96219       83.48788
H         65.66799       71.59539       84.65391
H         64.60390       72.20793       81.01502
H         63.56623       70.55552       84.86982
H         62.46313       71.40822       80.10626
H         61.42754       69.77646       83.95040
H         59.99664       69.59657       81.97013
N         65.88232       68.96706       82.31224
C         65.93286       67.53164       82.09398
C         66.04546       67.37221       80.59211
O         67.03266       66.82102       80.13234
C         64.65826       66.79498       82.62155
C         64.33136       67.07393       84.10910
C         64.75472       65.27203       82.37179
C         65.34189       66.52696       85.11847
H         65.09649       69.45348       81.88184
H         66.82907       67.08865       82.58327
H         63.78382       67.17769       82.05048
H         63.34268       66.61853       84.34266
H         64.23336       68.16676       84.26002
H         63.81485       64.76826       82.68379
H         64.92562       65.03667       81.30756
H         65.60738       64.82370       82.92006
H         65.00576       66.78972       86.14365
H         65.39858       65.41997       85.06814
H         66.34663       66.96197       84.94948
N         65.08896       67.90267       79.76318
C         65.14732       67.79830       78.31271
C         64.89759       66.37346       77.86417
O         65.30806       66.02966       76.76518
C         64.12857       68.73889       77.64804
O         64.34497       70.06587       78.04957
H         64.29664       68.41884       80.17221
H         66.16406       68.11842       77.99065
H         63.09794       68.44816       77.94552
H         64.18558       68.66737       76.53831
H         65.17906       70.36781       77.60366
N         64.26786       65.47653       78.68701
C         64.10394       64.05407       78.40726
C         65.44116       63.31479       78.31517
O         65.42444       62.12544       78.03178
C         63.24547       63.84611       77.15194
H         63.87745       65.81204       79.57714
H         63.54066       63.59618       79.25192
H         63.04049       62.76424       77.00670
H         62.27081       64.36557       77.27590
H         63.74222       64.22815       76.23875
N         66.63332       63.94217       78.55369
C         67.94015       63.32090       78.40536
C         68.72174       63.35337       79.70604
O         68.26722       63.94600       80.67615
C         68.70955       64.09826       77.33169
H         66.64283       64.92223       78.83478
H         67.83290       62.26203       78.08905
H         68.83516       65.15970       77.64556
H         69.71321       63.66160       77.15567
H         68.14234       64.08422       76.37719
N         69.92465       62.70554       79.78901
C         70.79155       62.71160       80.96652
C         70.14606       62.08891       82.20004
O         70.76391       62.13128       83.25592
C         71.32770       64.13755       81.23401
C         72.18412       64.61483       80.04983
C         72.73482       65.98433       80.28793
O         72.46695       66.88644       79.51303
O         73.54152       66.22123       81.34001
H         70.26073       62.18788       78.96329
H         71.68692       62.08451       80.75590
H         71.97674       64.12277       82.13785
H         70.49616       64.84936       81.42263
H         71.57341       64.62588       79.12103
H         73.03754       63.91757       79.90109
N         68.94660       61.44076       82.15054
C         68.35948       60.82978       83.32204
H         67.40362       60.33380       83.04992
H         69.05001       60.06469       83.73685
H         68.15494       61.60459       84.09058
H         68.43492       61.34169       81.26402
Ca        73.76039       69.32037       79.80369
O         76.32759       67.11740       79.93508
H         76.18226       66.28328       80.44819
H         77.22092       67.00225       79.52396
O         71.09803       69.01154       81.20779
H         70.67135       68.29746       81.74424
H         71.51274       69.61202       81.87683
O         76.73319       70.30642       80.24139
H         76.94196       70.14080       79.28787
H         77.46399       70.89475       80.55710
O         75.00752       68.56841       77.10335
H         75.42480       69.46441       77.04381
H         74.03499       68.74350       77.03785

Ca 1.0



