%chk=apoCaM-CA-Ng.loop4.water3.frame226.chk
%nprocshared=20
%mem=10GB
%nosave
#b3lyp/svp scf=(tight,noincore,xqc) Test 
#IOP(5/87=12) Density=Current Pop=(MK,readradii) iop(6/33=2) iop(6/42=6)

apoCaM-CA-Ng.loop4.water3.frame226 

   -3  1 
C         28.79649       47.84530       97.61574
C         29.28316       49.03732       98.38120
O         30.31831       48.92104       99.00646
H         27.85244       48.06212       97.07701
H         29.57107       47.54733       96.87638
H         28.62901       47.00065       98.31702
N         28.60493       50.22138       98.35920
C         29.03332       51.44524       99.03426
C         30.51217       51.74889       98.90653
O         31.20891       51.76480       99.90171
C         28.37485       51.67617      100.41806
C         28.50868       50.66679      101.53941
O         29.67131       50.39614      102.16988
O         27.48470       50.19759      102.01033
H         27.74967       50.27964       97.78642
H         28.57854       52.28984       98.46567
H         27.28310       51.77511      100.21780
H         28.71190       52.66522      100.80132
N         31.00895       52.08578       97.67958
C         32.35354       52.56072       97.33887
C         32.65152       53.91072       97.99273
O         32.67150       54.90266       97.27637
C         33.47670       51.50764       97.54879
C         34.82631       51.97290       96.92858
C         33.07951       50.13426       96.97928
C         34.81494       52.19067       95.40292
H         30.34354       52.05108       96.89073
H         32.30020       52.74632       96.24498
H         33.63843       51.36328       98.63885
H         35.58844       51.20116       97.15767
H         35.15597       52.91810       97.40990
H         33.90047       49.40149       97.13485
H         32.18646       49.74597       97.50306
H         32.84046       50.19002       95.89802
H         34.52736       51.26718       94.86039
H         34.13242       53.01073       95.10405
H         35.83067       52.47699       95.05982
N         32.86715       54.04207       99.33646
C         32.98761       55.33443       99.99245
C         34.40040       55.88996       99.84008
O         34.51835       56.92513       99.19949
C         32.42150       55.26183      101.43146
C         32.39644       56.60460      102.10897
O         33.54373       57.26089      102.36574
O         31.33238       57.09934      102.44629
H         32.89183       53.21261       99.93453
H         32.28660       56.03701       99.48219
H         32.96337       54.54281      102.06645
H         31.37763       54.87960      101.36427
N         35.53536       55.31219      100.34269
C         35.57945       54.10172      101.15758
C         36.99597       53.69028      101.54501
O         37.93869       54.32133      101.08795
H         36.41881       55.79791      100.12692
H         35.11752       53.26717      100.59589
H         35.03971       54.30575      102.08659
N         37.28177       52.63099      102.36661
C         36.35528       51.73492      103.05600
C         35.44604       51.05471      102.04207
O         34.24029       51.25068      102.08981
C         35.67374       52.46101      104.23794
C         35.03932       51.50410      105.21054
O         33.74858       51.64498      105.55497
O         35.70873       50.62973      105.73962
H         38.27668       52.42412      102.51648
H         36.96267       50.94998      103.55706
H         34.93063       53.20671      103.90630
H         36.46675       52.99395      104.80715
N         35.95693       50.29105      101.02775
C         37.35808       49.91149      100.92416
C         38.07737       50.68525       99.85868
O         37.45458       51.37923       99.06687
H         35.32523       49.96503      100.28498
H         37.45174       48.81675      100.75945
H         37.89882       50.10935      101.86206
N         39.43933       50.66159       99.84344
C         40.22672       51.42311       98.88497
C         40.19304       50.77054       97.50474
O         40.72382       51.35915       96.57189
C         41.70212       51.55671       99.34114
C         41.93164       52.36923      100.63631
C         41.46048       51.70757      101.90641
N         41.94028       50.49935      102.28386
O         40.65842       52.28480      102.62145
H         39.92146       50.10941      100.56627
H         39.80634       52.45215       98.81791
H         42.24113       52.11526       98.54486
H         42.17447       50.55442       99.42503
H         41.45602       53.36968      100.52742
H         43.02490       52.52658      100.75087
H         42.63158       50.00053      101.70652
H         41.61930       50.06089      103.16029
N         39.62045       49.54710       97.30307
C         39.59993       48.84675       96.02280
C         40.36024       47.52581       96.08691
O         40.45352       46.86872       95.06091
C         38.13525       48.63049       95.54758
C         37.51484       49.96823       95.13761
C         37.24958       47.93991       96.60321
H         39.19352       49.05742       98.10025
H         40.12516       49.44072       95.24198
H         38.14836       47.99280       94.63639
H         38.10664       50.42547       94.31595
H         36.48105       49.80950       94.76684
H         37.50041       50.67407       95.99235
H         37.68701       46.96782       96.91256
H         37.11926       48.57992       97.50146
H         36.23654       47.75194       96.18892
N         40.95335       47.08430       97.23494
C         41.74235       45.86301       97.31418
C         41.09482       44.87430       98.25869
O         40.92031       43.72852       97.86388
C         43.17275       46.19513       97.78571
C         43.88858       47.10415       96.81539
N         44.12955       46.71016       95.54183
O         44.26480       48.20540       97.18792
H         40.87974       47.64006       98.09555
H         41.82749       45.36489       96.32345
H         43.76406       45.25760       97.88070
H         43.13134       46.67655       98.78786
H         43.83394       45.78130       95.20826
H         44.62162       47.33383       94.88487
N         40.72260       45.23175       99.52193
C         40.23487       44.27001      100.50317
C         38.80515       44.52909      100.93067
O         38.29008       45.62683      100.76842
C         41.11364       44.38660      101.76631
C         42.55939       44.07680      101.49457
C         42.96536       42.75165      101.28309
C         43.51578       45.10589      101.46764
C         44.31265       42.45664      101.05946
C         44.85985       44.81102      101.22681
C         45.26471       43.48682      101.02886
O         46.56765       43.21617      100.81497
H         40.82944       46.21277       99.82188
H         40.27715       43.23703      100.09307
H         40.75688       43.72821      102.58851
H         41.02015       45.43454      102.13423
H         42.24039       41.94755      101.31185
H         43.22125       46.13699      101.62236
H         44.61482       41.42760      100.91395
H         45.58738       45.61254      101.19983
H         46.89008       42.31269      100.68743
N         38.15633       43.53304      101.60195
C         36.91924       43.65822      102.36314
C         35.65999       43.97791      101.55327
O         34.60429       44.05728      102.16439
C         37.16784       44.66054      103.51645
C         36.24090       44.44753      104.72736
C         36.54823       45.38251      105.86757
O         37.41243       46.24089      105.77203
O         35.85942       45.26507      107.01807
H         38.63883       42.62365      101.68413
H         36.75070       42.66130      102.83060
H         37.11402       45.70355      103.13467
H         38.19894       44.48664      103.90114
H         36.38463       43.40701      105.09546
H         35.17825       44.58228      104.45230
N         35.66157       44.14552      100.19663
C         34.45273       44.47502       99.43780
C         34.06239       43.37440       98.46160
O         33.04114       43.53415       97.80582
C         34.66836       45.79757       98.66923
C         34.98513       47.01209       99.55859
C         33.81801       47.45701      100.39441
O         33.28992       48.67472      100.17724
O         33.34526       46.73682      101.25780
H         36.53930       44.04428       99.66899
H         33.57862       44.58876      100.11096
H         33.77054       46.04130       98.05735
H         35.52180       45.65041       97.97182
H         35.24379       47.85306       98.88091
H         35.86536       46.81359      100.20337
N         34.79440       42.23180       98.31168
C         34.42552       41.17013       97.39543
H         33.48437       41.38532       96.84629
H         35.23691       41.02808       96.65191
H         34.28638       40.22718       97.96392
H         35.65262       42.08621       98.86011
Ca        31.47758       49.43195      101.25498
O         33.35968       48.45695      103.66175
H         33.92690       49.06188      104.20027
H         33.65082       47.54782      103.92413
O         31.30636       51.13284      104.34990
H         32.01215       51.32311      103.68190
H         30.71725       51.92742      104.31612
O         30.22021       47.24334      102.95551
H         29.74618       47.48065      103.79165
H         29.59028       47.49430      102.23367

Ca 1.0



