%chk=apoCaM-CA-Ng.loop4.water3.frame349.chk
%nprocshared=20
%mem=10GB
%nosave
#b3lyp/svp scf=(tight,noincore,xqc) Test 
#IOP(5/87=12) Density=Current Pop=(MK,readradii) iop(6/33=2) iop(6/42=6)

apoCaM-CA-Ng.loop4.water3.frame349 

   -3  1 
C         92.32658       84.89055       30.25040
C         93.69199       84.66873       29.67708
O         94.65821       84.76283       30.41525
H         91.71618       83.97297       30.11888
H         92.39188       85.11846       31.33716
H         91.83737       85.74116       29.73361
N         93.84293       84.33501       28.36237
C         95.12786       84.05653       27.72692
C         95.82958       82.91509       28.44422
O         96.88263       83.11935       29.01509
C         95.95888       85.34942       27.47841
C         96.38028       86.16594       28.67118
O         97.26685       85.68332       29.55837
O         95.96743       87.30719       28.80324
H         92.99404       84.22863       27.78626
H         94.93003       83.68791       26.69482
H         95.33958       86.00173       26.82314
H         96.87441       85.08567       26.90516
N         95.25603       81.67336       28.43151
C         95.73837       80.44223       29.07151
C         97.08711       79.97983       28.51632
O         97.09970       78.99857       27.78540
C         95.69386       80.51632       30.62575
C         96.09563       79.17414       31.30425
C         94.30150       80.96297       31.11155
C         95.17805       77.98020       31.00645
H         94.37034       81.58257       27.90858
H         94.99948       79.66320       28.77755
H         96.42127       81.28409       30.96578
H         96.11257       79.32474       32.40569
H         97.12212       78.89531       30.99406
H         94.05624       81.97270       30.72548
H         93.50840       80.26819       30.76545
H         94.27692       81.00898       32.21965
H         94.14325       78.16727       31.35858
H         95.16287       77.73945       29.92428
H         95.55724       77.08553       31.54363
N         98.25865       80.61966       28.80791
C         99.53653       80.24118       28.22060
C         99.99300       78.86527       28.71190
O        100.10179       77.98798       27.86681
C        100.57577       81.37017       28.41217
C        101.90412       81.03022       27.79812
O        103.01087       80.99870       28.56440
O        101.98916       80.79105       26.60395
H         98.25426       81.41748       29.44964
H         99.39149       80.18479       27.11606
H        100.71272       81.62687       29.47497
H        100.18949       82.29195       27.92371
N        100.26585       78.54006       30.01394
C        100.19732       79.46155       31.14227
C        100.44839       78.79334       32.48864
O        100.63669       77.58549       32.51669
H        100.53177       77.55934       30.18823
H         99.18421       79.89055       31.16510
H        100.96501       80.23292       31.00864
N        100.44921       79.46120       33.68632
C        100.28815       80.89186       33.94396
C         98.98278       81.44103       33.38565
O         98.99030       81.94561       32.27193
C        101.53922       81.69558       33.52137
C        101.50621       83.10662       34.04448
O        101.41410       83.33651       35.36889
O        101.59243       84.04956       33.27670
H        100.58389       78.88165       34.53073
H        100.26376       81.00397       35.04854
H        101.66161       81.71190       32.42173
H        102.43577       81.20724       33.95879
N         97.81426       81.45683       34.08928
C         97.63728       81.01712       35.46423
C         97.72522       79.52476       35.64314
O         97.90515       78.79671       34.67768
H         96.99474       81.86527       33.62368
H         96.61847       81.30252       35.80017
H         98.35830       81.54358       36.12334
N         97.54942       79.00274       36.89056
C         97.55801       77.57204       37.17472
C         96.16997       77.06426       37.55834
O         96.01008       75.85399       37.64214
C         98.70043       77.21918       38.15836
C         98.68927       77.93800       39.51998
C         97.57378       77.49191       40.41690
N         97.50676       76.20863       40.83652
O         96.74354       78.29923       40.79839
H         97.37085       79.65726       37.66687
H         97.79360       77.01561       36.24077
H         99.64812       77.51457       37.65703
H         98.74413       76.11876       38.30761
H         98.65932       79.03631       39.36821
H         99.64041       77.71313       40.04875
H         98.21288       75.51857       40.54586
H         96.76094       75.90412       41.47207
N         95.09872       77.90842       37.68874
C         93.70887       77.44927       37.72202
C         92.96088       77.81318       38.99817
O         91.79944       77.44149       39.09330
C         92.94698       78.00824       36.47939
C         93.57479       77.50839       35.16910
C         92.87539       79.54534       36.46197
H         95.25374       78.92331       37.66571
H         93.67014       76.33932       37.66042
H         91.90224       77.62678       36.50815
H         92.99079       77.87792       34.29850
H         94.62156       77.86565       35.06257
H         93.56788       76.39855       35.14256
H         92.27400       79.87595       35.59072
H         92.39426       79.93753       37.38204
H         93.88177       79.99774       36.36917
N         93.53563       78.50915       40.02028
C         92.81862       78.84363       41.24800
C         92.79090       80.34556       41.50388
O         92.27722       80.71941       42.55179
C         93.47677       78.13393       42.45579
C         93.49083       76.62832       42.34071
N         92.34615       75.91896       42.20884
O         94.55511       76.03627       42.39618
H         94.51698       78.80069       39.94572
H         91.76092       78.50622       41.20378
H         92.91150       78.38352       43.38050
H         94.51766       78.50604       42.58128
H         91.43027       76.38679       42.17316
H         92.37850       74.88991       42.14555
N         93.29662       81.27564       40.63125
C         93.37393       82.69238       40.99348
C         93.66601       83.61499       39.80918
O         94.54652       83.33695       39.00757
C         94.40877       82.89663       42.14213
C         95.82105       82.46837       41.79283
C         96.61008       83.22655       40.91108
C         96.37051       81.30490       42.36058
C         97.89557       82.81037       40.56456
C         97.66509       80.89536       42.02244
C         98.42608       81.63774       41.11426
O         99.66286       81.21886       40.77980
H         93.65012       80.97867       39.70977
H         92.38361       83.00358       41.39527
H         94.06551       82.30479       43.01544
H         94.41676       83.95423       42.48256
H         96.23737       84.14622       40.48871
H         95.79482       80.70560       43.05485
H         98.47665       83.40288       39.86924
H         98.07355       79.99284       42.45895
H        100.20992       81.69583       40.13923
N         92.98595       84.79690       39.70963
C         93.28587       85.89865       38.79262
C         93.09415       85.61944       37.31362
O         93.25259       86.56753       36.55434
C         94.68670       86.49872       39.04672
C         94.80884       87.09793       40.45350
C         96.11972       87.81493       40.60586
O         97.27944       87.14154       40.48645
O         96.13940       89.01553       40.82864
H         92.24345       84.98491       40.40111
H         92.55476       86.71030       39.01288
H         94.84281       87.33593       38.33000
H         95.48126       85.74579       38.86296
H         94.72588       86.30472       41.22553
H         93.98258       87.82836       40.60738
N         92.68060       84.42173       36.81183
C         92.28732       84.30145       35.41126
C         90.79335       84.55584       35.27605
O         90.30340       84.57868       34.15526
C         92.65434       82.92177       34.84049
C         94.12573       82.54873       35.04245
C         95.08538       83.45637       34.33939
O         95.92618       84.06856       34.97742
O         95.11191       83.49575       32.99588
H         92.45828       83.64537       37.45068
H         92.81264       85.06821       34.79817
H         92.40512       82.88362       33.75608
H         92.03917       82.15989       35.36076
H         94.29279       81.52470       34.64724
H         94.35315       82.53299       36.12973
N         90.00210       84.76934       36.37096
C         88.58830       85.03730       36.26668
H         88.07838       84.18880       35.76606
H         88.15778       85.16290       37.28413
H         88.42510       85.97423       35.69474
H         90.39243       84.74500       37.32339
Ca        96.98320       84.28326       32.01001
O         96.10216       87.04139       32.41242
H         97.01328       87.42287       32.48252
H         95.74768       87.06940       33.33641
O         99.82814       85.69994       31.28500
H         99.78472       86.68137       31.40647
H        100.79177       85.48725       31.35410
O         98.74863       85.41131       34.20174
H         98.86636       84.42917       34.24192
H         98.14612       85.61923       34.95882

Ca 1.0



