%chk=apoCaM-CA-Ng.loop1.water3.frame1240.chk
%nprocshared=20
%mem=10GB
%nosave
#b3lyp/svp scf=(tight,noincore,xqc) Test 
#IOP(5/87=12) Density=Current Pop=(MK,readradii) iop(6/33=2) iop(6/42=6)

apoCaM-CA-Ng.loop1.water3.frame1240 

   0  1 
C         69.31563       54.44905       33.13264
C         67.92892       54.11487       33.58600
O         67.64539       52.94613       33.80965
H         69.93200       53.52788       33.04932
H         69.27072       54.93595       32.13549
H         69.78986       55.13763       33.86088
N         66.99475       55.10146       33.71169
C         65.60945       54.83294       34.08276
C         64.70449       55.07758       32.89406
O         63.67137       55.72239       33.01280
C         65.20973       55.60780       35.36095
C         65.26315       57.11575       35.26214
O         65.57256       57.68229       34.22568
O         64.95311       57.85316       36.34485
H         67.27242       56.06619       33.47974
H         65.48701       53.75276       34.31395
H         65.89086       55.29282       36.17994
H         64.17495       55.31958       35.64748
N         65.05393       54.54789       31.69078
C         64.21009       54.60971       30.51081
C         62.96168       53.76795       30.73187
O         61.88405       54.33267       30.60369
C         65.00183       54.23351       29.23356
C         66.09285       55.29502       28.97130
C         66.91591       55.00332       27.71091
C         68.00464       56.06658       27.45580
N         67.44606       57.38690       27.14929
H         65.96357       54.06975       31.61495
H         63.88612       55.66351       30.34652
H         64.30791       54.23155       28.36437
H         65.45708       53.22584       29.30998
H         66.78858       55.34843       29.83618
H         65.58827       56.27739       28.86264
H         66.25069       54.93743       26.82311
H         67.41985       54.02150       27.84520
H         68.61578       55.73363       26.58832
H         68.67953       56.14021       28.33784
H         68.22839       58.04084       26.91722
H         66.80641       57.32513       26.32414
H         66.93460       57.78126       27.96962
N         62.95511       52.45406       31.11628
C         64.11539       51.59695       31.36914
C         64.21131       51.21901       32.85007
O         63.35298       51.59064       33.63682
C         64.08069       50.38119       30.41654
C         62.74138       49.70242       30.38177
O         62.20073       49.19151       31.49912
O         62.11634       49.65561       29.33486
H         62.02778       52.02910       31.27499
H         65.05814       52.11990       31.16121
H         64.87362       49.64899       30.67872
H         64.29535       50.74629       29.38739
N         65.31752       50.55422       33.30265
C         65.62681       50.30174       34.70826
C         64.70058       49.33215       35.40341
O         63.72826       48.90499       34.81355
H         66.03801       50.28401       32.61646
H         65.65311       51.26061       35.26803
H         66.64362       49.85230       34.75195
N         64.99286       48.90147       36.66612
C         64.23599       47.86683       37.39672
C         65.11248       47.22029       38.48432
O         66.17807       47.75521       38.76459
C         62.97866       48.48697       38.05952
C         61.99987       49.07437       37.08860
O         61.70871       50.38851       37.13488
O         61.44357       48.36093       36.27070
H         65.86607       49.27292       37.07030
H         63.98269       47.05655       36.68371
H         63.30996       49.28249       38.76269
H         62.42513       47.73570       38.64831
N         64.80308       46.07092       39.16226
C         63.65604       45.18789       38.98630
C         63.63776       44.49486       37.64342
O         64.68772       44.11388       37.14858
H         65.47764       45.76640       39.88263
H         62.69624       45.68591       39.21725
H         63.75043       44.37394       39.73849
N         62.44642       44.21085       37.04368
C         62.32574       43.54636       35.74125
C         62.79222       44.50190       34.61076
O         62.46072       45.80207       35.03685
C         60.85933       43.15292       35.44314
C         60.29400       42.18828       36.49376
O         60.81710       42.52031       34.18743
H         61.58464       44.48696       37.53787
H         62.89729       42.59094       35.74439
H         60.23713       44.07797       35.42424
H         59.88184       42.57746       33.86119
H         59.25232       41.91463       36.22295
H         60.90447       41.26137       36.53767
H         60.26973       42.65135       37.50059
N         64.21160       44.31973       34.26172
C         64.73921       44.85883       32.96894
C         63.64135       45.27522       31.91807
O         63.64543       46.63048       31.58731
C         65.84471       45.92115       33.26577
C         66.85278       45.32610       34.29554
C         66.59471       46.33816       31.97802
C         67.96057       46.27788       34.73646
H         64.36410       43.28338       34.21367
H         65.31099       44.02749       32.49087
H         65.36376       46.81650       33.71580
H         67.31782       44.40528       33.87781
H         66.31278       45.04530       35.22313
H         67.34128       47.12709       32.19419
H         67.11046       45.46385       31.52733
H         65.93213       46.77227       31.20979
H         68.58109       45.77143       35.50647
H         68.62974       46.54008       33.89373
H         67.52236       47.19725       35.17751
N         63.61614       44.43321       30.71815
C         62.75373       44.91905       29.61662
C         61.86156       43.80677       29.11107
O         61.10261       44.05928       28.18749
C         63.56203       45.58302       28.45789
C         64.57525       44.65818       27.77462
O         64.23952       46.72023       28.92170
H         64.55344       44.10244       30.40889
H         62.03592       45.68617       29.99227
H         62.84168       45.88966       27.65990
H         63.59670       47.47493       28.87627
H         65.39516       44.36608       28.45982
H         64.07666       43.74645       27.38652
H         65.04407       45.19431       26.92241
N         61.85339       42.57008       29.69649
C         60.92460       41.50933       29.31873
C         59.51123       42.01274       29.59837
O         59.11377       42.06822       30.75403
C         61.28748       40.22762       30.11397
C         60.40970       39.03051       29.76825
O         62.62718       39.89490       29.83992
H         62.50860       42.37880       30.46682
H         61.05737       41.30475       28.23290
H         61.17027       40.45701       31.20196
H         63.00848       39.49364       30.66451
H         60.51743       38.77524       28.69351
H         60.73520       38.15854       30.37673
H         59.34665       39.24318       30.00014
N         58.80295       42.61015       28.58980
C         57.61923       43.45620       28.77095
C         57.91705       44.62972       29.70085
O         58.99473       44.67742       30.26600
C         56.38696       42.66390       29.24250
C         56.03658       41.53893       28.26079
C         54.69628       40.89185       28.62273
C         54.36523       39.74544       27.65961
N         53.05109       39.17749       27.95644
H         59.18973       42.57016       27.63471
H         57.37161       43.89534       27.77774
H         55.52599       43.36601       29.29205
H         56.54628       42.24208       30.25801
H         56.84661       40.77716       28.27261
H         55.95325       41.95724       27.23301
H         53.89813       41.66485       28.55900
H         54.73198       40.49989       29.66243
H         55.14180       38.95367       27.75225
H         54.36905       40.12063       26.61175
H         52.86744       38.38145       27.30405
H         53.02197       38.82550       28.94071
H         52.31042       39.90353       27.81898
N         57.02805       45.64723       29.87535
C         57.25504       46.76123       30.80187
C         58.62370       47.42138       30.62402
O         59.32917       47.51257       31.61912
C         56.12188       47.80760       30.72646
C         54.79219       47.26591       31.27352
C         53.70769       48.29736       31.15278
O         53.36227       48.69895       30.05269
O         53.10252       48.77658       32.25618
H         56.15986       45.63139       29.31903
H         57.24730       46.36133       31.84293
H         55.98785       48.15074       29.68292
H         56.39820       48.68725       31.35083
H         54.92837       47.00025       32.34548
H         54.47376       46.35569       30.72551
N         59.12168       47.89018       29.44605
C         58.46072       47.81440       28.16536
H         57.52699       48.40297       28.16906
H         59.12630       48.24336       27.38619
H         58.26367       46.75886       27.89325
H         60.06396       48.30374       29.45964
Ca        62.50204       47.20168       33.33684
O         59.09612       46.71310       35.10010
H         59.49271       46.61437       36.00180
H         58.12545       46.58224       35.24334
O         60.31596       44.95137       32.43060
H         59.39184       44.82499       32.76017
H         60.81531       45.19024       33.23879
O         60.23571       50.17102       33.88544
H         60.05629       50.25724       34.85506
H         60.29847       51.10501       33.56306

Ca 1.0



