%chk=apoCaM-CA-Ng.loop4.water3.frame256.chk
%nprocshared=20
%mem=10GB
%nosave
#b3lyp/svp scf=(tight,noincore,xqc) Test 
#IOP(5/87=12) Density=Current Pop=(MK,readradii) iop(6/33=2) iop(6/42=6)

apoCaM-CA-Ng.loop4.water3.frame256 

   -3  1 
C         25.06479       46.12283       16.13668
C         24.13374       46.85264       17.05702
O         23.92498       46.37305       18.15732
H         26.05920       46.02589       16.62281
H         24.66322       45.10734       15.93514
H         25.18954       46.65764       15.17312
N         23.55605       48.03247       16.68666
C         22.66572       48.81201       17.54070
C         23.34071       49.24124       18.82427
O         22.92199       48.83213       19.88837
C         21.23883       48.21250       17.69053
C         20.99101       46.74691       17.99519
O         21.34941       46.10935       19.13152
O         20.33317       46.11023       17.18686
H         23.78848       48.42506       15.76188
H         22.45592       49.78092       17.03034
H         20.75301       48.38650       16.70252
H         20.67181       48.83134       18.41888
N         24.36756       50.14140       18.75948
C         25.09382       50.76279       19.87169
C         24.19936       51.70169       20.69064
O         24.39452       52.90551       20.58755
C         25.88809       49.73560       20.72026
C         26.76807       50.41816       21.80150
C         26.75211       48.82770       19.82377
C         27.83589       51.39235       21.28367
H         24.66085       50.44156       17.81595
H         25.85055       51.41584       19.38225
H         25.16770       49.07688       21.24969
H         27.29137       49.61995       22.36758
H         26.11330       50.97289       22.50735
H         27.47720       49.41880       19.22689
H         27.30841       48.09252       20.44368
H         26.11588       48.25419       19.11839
H         28.41149       51.79315       22.14463
H         28.55170       50.88579       20.60545
H         27.38032       52.25740       20.76109
N         23.18791       51.25191       21.49245
C         22.23487       52.15087       22.13315
C         22.85075       52.88006       23.32894
O         22.94431       54.09632       23.23920
C         20.89789       51.42759       22.43760
C         20.18735       50.93644       21.19610
O         19.00082       50.31284       21.31980
O         20.66040       51.10068       20.08170
H         23.03138       50.24726       21.60158
H         21.94645       52.93145       21.38963
H         20.21442       52.13748       22.95082
H         21.04820       50.54474       23.07890
N         23.30984       52.28656       24.47535
C         23.25641       50.85875       24.76186
C         23.88163       50.47852       26.10498
O         24.39216       51.35680       26.78578
H         23.71818       52.91888       25.18011
H         23.79638       50.32860       23.95577
H         22.20469       50.56363       24.80594
N         23.92983       49.19212       26.58435
C         23.38881       47.98139       25.96263
C         23.93523       47.83085       24.55426
O         23.16326       47.85814       23.60541
C         21.84627       47.94200       26.06804
C         21.29681       46.60400       25.65009
O         21.68694       45.48287       26.28735
O         20.48183       46.52818       24.74591
H         24.42747       49.04957       27.47793
H         23.72750       47.10859       26.56399
H         21.36906       48.73593       25.46766
H         21.56048       48.09850       27.13046
N         25.27115       47.73862       24.30742
C         26.30381       47.58651       25.31543
C         27.16997       48.80566       25.39272
O         26.86292       49.81775       24.78154
H         25.59241       47.77022       23.33116
H         26.92019       46.70528       25.03571
H         25.90538       47.39606       26.32902
N         28.29021       48.77130       26.15690
C         29.18959       49.90336       26.29768
C         30.53786       49.60812       25.65647
O         31.41076       50.46162       25.74477
C         29.28635       50.29083       27.78624
C         27.89368       50.66394       28.33478
C         27.95037       51.11450       29.76949
N         27.51693       52.34810       30.12252
O         28.37421       50.35316       30.62606
H         28.52752       47.89807       26.65426
H         28.79988       50.79655       25.76007
H         29.95786       51.17177       27.88891
H         29.71315       49.44803       28.37326
H         27.21403       49.78661       28.27584
H         27.46211       51.47361       27.70590
H         27.14508       53.00198       29.41775
H         27.54473       52.65086       31.10724
N         30.75222       48.47802       24.90737
C         31.97338       48.24982       24.13772
C         32.68989       46.95430       24.50704
O         33.78458       46.76000       23.99705
C         31.67016       48.30577       22.61140
C         31.08582       49.67246       22.22046
C         30.72538       47.18457       22.14510
H         29.99752       47.78709       24.80229
H         32.70345       49.06209       24.35069
H         32.63170       48.18749       22.06378
H         31.78283       50.48687       22.51166
H         30.93177       49.72577       21.12179
H         30.10814       49.84448       22.71935
H         30.58498       47.24020       21.04455
H         31.15448       46.18886       22.38271
H         29.72575       47.26949       22.61912
N         32.17413       46.03933       25.38575
C         32.92391       44.86513       25.82881
C         32.26815       43.52765       25.47988
O         32.95366       42.70719       24.88352
C         33.29869       44.98182       27.33099
C         32.20793       45.18344       28.36259
N         32.54536       45.26434       29.67014
O         31.03585       45.29346       28.04686
H         31.24715       46.20089       25.79663
H         33.91744       44.83455       25.32632
H         33.98190       45.85336       27.43421
H         33.87487       44.07117       27.60785
H         33.52907       45.18055       29.96573
H         31.82175       45.40688       30.39033
N         31.00020       43.19503       25.85934
C         30.47168       41.83382       25.76411
C         29.21103       41.74486       24.92316
O         28.30756       42.54848       25.10389
C         30.14122       41.32602       27.18343
C         31.35566       41.24918       28.07896
C         32.42644       40.39594       27.75835
C         31.41926       42.01216       29.25647
C         33.54010       40.31164       28.59898
C         32.53457       41.92679       30.09536
C         33.59722       41.07758       29.77176
O         34.66247       41.00254       30.59487
H         30.40309       43.89985       26.30633
H         31.22056       41.13408       25.33536
H         29.70863       40.30421       27.12311
H         29.37034       41.99196       27.63182
H         32.39852       39.78916       26.86236
H         30.60596       42.67310       29.52848
H         34.35519       39.64757       28.33986
H         32.57073       42.51987       31.00041
H         35.41466       40.42163       30.41152
N         29.04477       40.68072       24.07607
C         27.80822       40.34518       23.36696
C         27.45720       41.30135       22.23753
O         26.41366       41.10513       21.62914
C         26.62191       40.15732       24.34617
C         26.91400       39.08333       25.40625
C         25.73287       38.87992       26.31063
O         25.84884       39.10475       27.63335
O         24.66659       38.49759       25.85498
H         29.81495       39.99937       23.99260
H         27.95702       39.35931       22.87019
H         25.73094       39.83360       23.76374
H         26.36298       41.11368       24.84524
H         27.78646       39.39034       26.01876
H         27.15481       38.11756       24.91140
N         28.29868       42.29615       21.83603
C         28.01370       43.16996       20.70252
C         28.95821       42.90067       19.53799
O         28.82511       43.57871       18.52788
C         28.10823       44.64246       21.15401
C         27.09177       45.04760       22.23816
C         25.67156       45.04498       21.73548
O         25.12717       44.00657       21.39939
O         24.99196       46.20409       21.65193
H         29.20376       42.42239       22.31161
H         27.00292       42.98112       20.28939
H         27.96561       45.32056       20.28352
H         29.13202       44.81154       21.55131
H         27.34156       46.08627       22.54344
H         27.18365       44.39926       23.13560
N         29.89892       41.90966       19.57340
C         30.77209       41.60247       18.45739
H         31.82937       41.70966       18.77582
H         30.59794       40.55394       18.13528
H         30.59926       42.26515       17.58349
H         30.00576       41.31937       20.40977
Ca        22.94826       46.27542       20.71671
O         20.24239       47.38858       21.91087
H         19.79802       47.97583       22.57260
H         19.71455       47.50506       21.08165
O         22.21821       44.10445       22.83762
H         22.60502       43.21796       23.04904
H         21.52380       44.24328       23.52900
O         22.09034       43.24805       19.54443
H         23.04815       43.17807       19.78369
H         22.09335       43.58483       18.61327

Ca 1.0



