%chk=apoCaM-CA-Ng.loop3.water5.frame427.chk
%nprocshared=20
%mem=10GB
%nosave
#b3lyp/svp scf=(tight,noincore,xqc) Test 
#IOP(5/87=12) Density=Current Pop=(MK,readradii) iop(6/33=2) iop(6/42=6)

apoCaM-CA-Ng.loop3.water5.frame427 

   0  1 
C         81.85819       35.06660       74.80389
C         80.97908       34.41086       73.77787
O         79.76806       34.56112       73.85840
H         82.93248       34.86726       74.60611
H         81.69726       36.16543       74.77892
H         81.60605       34.68631       75.81545
N         81.52176       33.66879       72.77030
C         80.71917       33.05114       71.71984
C         80.00028       34.12963       70.93541
O         80.63252       35.10093       70.54141
C         81.59907       32.20819       70.78116
C         80.75711       31.47224       69.77175
O         79.81984       30.59578       70.18423
O         80.91615       31.66620       68.57772
H         82.54637       33.54922       72.74489
H         79.98780       32.35612       72.19222
H         82.15196       31.45188       71.37896
H         82.33957       32.86068       70.26835
N         78.66999       34.01541       70.67639
C         77.87689       35.08202       70.07565
C         76.70612       35.39830       70.98519
O         76.58407       34.76815       72.02943
C         77.47439       34.76395       68.61170
C         76.33857       33.76528       68.32036
C         76.59805       32.31359       68.72623
C         75.47586       31.40925       68.19111
N         75.67933       30.01977       68.59562
H         78.19799       33.14746       70.96329
H         78.49604       36.00293       69.99991
H         78.38735       34.46906       68.04937
H         77.12901       35.72112       68.16247
H         76.19556       33.78627       67.21620
H         75.39489       34.11758       68.78656
H         76.61798       32.23228       69.82872
H         77.56883       31.97348       68.30405
H         75.45305       31.46581       67.07893
H         74.49289       31.76124       68.57694
H         76.59409       29.66797       68.23081
H         75.66033       29.94580       69.63857
H         74.90837       29.43371       68.20082
N         75.78393       36.34176       70.65187
C         74.62882       36.62316       71.49384
C         73.39385       36.00683       70.86290
O         73.41945       35.65393       69.69094
C         74.55943       38.14375       71.75723
C         73.45180       38.57096       72.67698
O         73.73914       39.11298       73.87551
O         72.29036       38.48725       72.32240
H         75.86687       36.83534       69.74983
H         74.74596       36.11613       72.47675
H         74.46402       38.69942       70.79898
H         75.52377       38.44009       72.22600
N         72.30212       35.73905       71.63060
C         71.11808       35.06556       71.13024
C         70.48075       35.85697       70.02326
O         70.32756       35.32752       68.93154
H         72.32433       35.98708       72.62925
H         70.38591       34.94888       71.95620
H         71.39326       34.04833       70.77175
N         70.12036       37.15495       70.22963
C         69.56248       38.00283       69.18422
C         70.55950       39.08433       68.78345
O         70.18537       40.23971       68.63227
C         68.17768       38.54725       69.61571
C         68.15286       39.18216       71.02260
N         66.84835       39.74240       71.35808
O         69.14114       40.14439       71.21475
H         70.29066       37.56840       71.15695
H         69.41132       37.41455       68.25340
H         67.46902       37.69165       69.65308
H         67.80293       39.26155       68.85187
H         66.11452       39.00600       71.26023
H         66.62762       40.53119       70.71042
N         71.85973       38.74574       68.53671
C         72.87712       39.65431       68.02074
C         73.23551       40.84802       68.89368
O         74.10114       41.60505       68.47765
H         72.14267       37.76362       68.66593
H         72.54260       40.03138       67.03040
H         73.81130       39.07171       67.86243
N         72.61432       41.11933       70.07501
C         72.88538       42.31708       70.86326
C         71.68896       42.58149       71.76209
O         71.40626       41.78491       72.64197
C         74.19439       42.15168       71.65959
C         74.35275       43.20908       72.72610
C         74.46394       44.57060       72.40195
C         74.35299       42.82259       74.07706
C         74.56305       45.52795       73.41940
C         74.44570       43.77712       75.08814
C         74.54784       45.13531       74.76373
O         74.62649       46.06751       75.73410
H         71.86941       40.49434       70.40416
H         72.97460       43.19020       70.17865
H         75.06923       42.14544       70.97472
H         74.15793       41.15932       72.15021
H         74.46330       44.89043       71.36765
H         74.26423       41.77943       74.35207
H         74.64116       46.57676       73.16389
H         74.43040       43.45730       76.12250
H         74.60465       45.83180       76.67305
N         70.89852       43.66362       71.52147
C         69.62783       43.91564       72.18818
C         68.50708       43.51236       71.23894
O         67.58411       42.84944       71.69084
C         69.54046       45.38948       72.67522
C         70.66170       45.73397       73.69678
C         68.15305       45.71621       73.26337
C         70.59439       44.97106       75.02797
H         71.15941       44.29322       70.74792
H         69.51313       43.26099       73.07662
H         69.68388       46.05289       71.79338
H         70.61225       46.82011       73.92927
H         71.65094       45.54075       73.23230
H         67.36164       45.59062       72.49648
H         67.90639       45.05142       74.11689
H         68.11957       46.77290       73.60488
H         71.43558       45.28970       75.67874
H         69.65197       45.19146       75.57043
H         70.68175       43.87818       74.87565
N         68.57310       43.74980       69.89394
C         67.59874       43.17500       68.97202
C         66.22174       43.80073       69.09330
O         65.27867       43.19880       68.60011
C         68.08756       43.26735       67.51764
O         68.23461       44.60858       67.13852
H         69.38319       44.25069       69.50367
H         67.52066       42.09082       69.20776
H         67.35513       42.76592       66.84554
H         69.06680       42.74159       67.43967
H         68.66242       44.59569       66.24323
N         66.03024       45.02101       69.68063
C         64.73621       45.69590       69.75118
C         63.72752       44.93260       70.60254
O         62.53301       45.13273       70.43034
C         64.20093       45.98123       68.33496
H         66.84143       45.52821       70.06351
H         64.88416       46.68780       70.23309
H         64.95716       46.54837       67.75155
H         63.95936       45.04906       67.78531
H         63.27492       46.59109       68.38688
N         64.14211       44.09209       71.59333
C         63.24002       43.31625       72.43595
C         63.34680       43.78773       73.87003
O         64.45715       43.88965       74.37495
C         63.60983       41.83481       72.33535
H         65.15246       43.99202       71.77174
H         62.18451       43.41409       72.10018
H         64.65495       41.66241       72.67226
H         62.92484       41.22946       72.96733
H         63.51384       41.49127       71.28318
N         62.22181       44.09340       74.59160
C         62.24589       44.58215       75.97091
C         62.80786       45.99433       76.09220
O         62.89494       46.47526       77.21440
C         62.94404       43.56531       76.93083
C         61.95019       42.74403       77.76776
C         61.00204       41.93357       76.93475
O         61.46937       40.98487       76.10249
O         59.79871       42.12090       77.02364
H         61.29892       43.96952       74.14847
H         61.19904       44.71477       76.32581
H         63.56550       44.10702       77.67542
H         63.63511       42.88542       76.39260
H         61.37377       43.44391       78.41407
H         62.51846       42.06034       78.43469
N         63.12050       46.75657       75.00318
C         63.57287       48.13044       75.10427
H         64.55972       48.23203       74.60935
H         62.84150       48.79328       74.59476
H         63.67017       48.47317       76.15623
H         63.00049       46.38413       74.05185
Ca        69.80352       39.65832       73.34349
O         71.35056       41.14559       75.70626
H         71.06990       41.49849       76.58738
H         71.97191       41.82971       75.35436
O         67.41306       37.89584       74.09568
H         66.84778       38.70832       74.11916
H         67.15574       37.43728       73.25687
O         70.49250       36.88178       74.21720
H         71.28571       36.65153       74.76326
H         70.00288       36.02825       74.11363
O         69.58875       38.77528       76.42925
H         69.23416       37.85161       76.40133
H         68.80329       39.33420       76.65291
O         68.11724       41.63551       74.93841
H         67.47189       40.93902       75.21672
H         67.67889       42.07737       74.17004

Ca 1.0



