%chk=apoCaM-CA-Ng.loop2.water3.frame600.chk
%nprocshared=20
%mem=10GB
%nosave
#b3lyp/svp scf=(tight,noincore,xqc) Test 
#IOP(5/87=12) Density=Current Pop=(MK,readradii) iop(6/33=2) iop(6/42=6)

apoCaM-CA-Ng.loop2.water3.frame600 

   -2  1 
C         43.79154       92.72860       77.14926
C         42.37836       93.20859       76.96574
O         41.56184       92.47366       76.42924
H         44.45293       93.55551       77.48761
H         43.82240       91.91528       77.90115
H         44.19348       92.35671       76.18205
N         42.03120       94.46190       77.36510
C         40.72319       95.05603       77.11952
C         39.61810       94.36886       77.90929
O         39.69706       94.30909       79.12595
C         40.77394       96.55516       77.46032
C         39.50851       97.25691       77.05863
O         39.14990       97.25512       75.89121
O         38.76977       97.89913       77.98182
H         42.75626       95.04116       77.81668
H         40.51983       94.98240       76.02848
H         41.61443       97.01938       76.89891
H         40.96531       96.69215       78.54754
N         38.52195       93.88082       77.26242
C         37.39908       93.21591       77.92761
C         37.81687       91.85537       78.46555
O         38.87214       91.38540       78.06341
C         36.29352       93.00314       76.88001
H         38.47442       94.02066       76.24230
H         37.02795       93.87407       78.74077
H         35.40164       92.47817       77.25113
H         35.96097       93.98459       76.48541
H         36.69716       92.39434       76.04233
N         37.05024       91.09738       79.31162
C         35.79548       91.50811       79.95284
C         35.98586       92.66197       80.92825
O         37.10808       93.06924       81.19673
C         35.05777       90.27560       80.54687
C         35.84176       89.40709       81.49369
O         37.05972       89.76658       81.92489
O         35.38289       88.32922       81.83702
H         37.39983       90.14639       79.50342
H         35.09958       91.88592       79.19277
H         34.79601       89.63204       79.67981
H         34.10570       90.57361       81.03693
N         34.88848       93.28441       81.44489
C         34.94435       94.49278       82.24970
C         35.29309       95.71479       81.42138
O         35.53109       95.58604       80.22860
H         33.95345       92.90834       81.23041
H         35.65805       94.36580       83.09021
H         33.93077       94.67357       82.66219
N         35.31509       96.96725       81.95766
C         35.00338       97.28930       83.34520
C         36.20520       97.88894       84.06105
O         36.02794       98.37432       85.17056
C         33.75289       98.19834       83.37288
C         32.52803       97.43769       82.91047
N         32.04840       96.39672       83.63605
O         31.95841       97.76989       81.88211
H         35.54326       97.75944       81.33334
H         34.75726       96.39450       83.94737
H         33.92670       99.08697       82.72703
H         33.54011       98.55708       84.40307
H         32.49893       96.11423       84.51921
H         31.21473       95.87579       83.32484
N         37.47670       97.80398       83.55389
C         38.64303       98.17742       84.34373
C         38.93035       97.15362       85.42720
O         39.69820       97.45846       86.32842
H         37.64690       97.36803       82.63668
H         38.43632       99.15613       84.82975
H         39.54025       98.30731       83.70324
N         38.32980       95.92762       85.41761
C         38.32659       95.01670       86.55772
C         39.16229       93.77576       86.31429
O         39.47156       93.44197       85.17885
C         36.85435       94.75186       86.97955
C         36.36358       95.90838       87.85508
O         36.03605       94.66579       85.83888
H         37.79220       95.64139       84.58620
H         38.85195       95.49248       87.41432
H         36.77493       93.81272       87.57147
H         35.13055       94.38479       86.13039
H         36.57646       96.88778       87.37813
H         35.27193       95.82424       88.03394
H         36.88329       95.86308       88.83591
N         39.73117       93.17525       87.40566
C         40.86998       92.26878       87.34779
C         40.48708       90.86604       87.78579
O         39.99260       90.66368       88.88584
C         42.03722       92.85533       88.20318
C         43.23372       91.86908       88.30041
C         42.47705       94.21048       87.60502
C         44.34161       92.34381       89.24121
H         39.44291       93.48823       88.34618
H         41.24325       92.20898       86.30942
H         41.66295       93.02358       89.23772
H         43.66478       91.67461       87.29809
H         42.87590       90.90460       88.71902
H         43.27398       94.68908       88.20653
H         42.84799       94.07308       86.56542
H         41.62921       94.92636       87.58231
H         44.83877       93.25656       88.85829
H         43.92565       92.54288       90.25222
H         45.11342       91.55022       89.32789
N         40.75871       89.84113       86.93088
C         40.50217       88.43647       87.12522
C         41.78897       87.59431       87.04840
O         41.68247       86.39816       87.28484
C         39.59636       87.98414       85.95234
C         38.27071       88.71919       85.88141
O         37.48923       88.59046       86.80410
O         37.86845       89.45448       84.81671
H         41.15992       90.06271       86.03086
H         40.01358       88.26941       88.11243
H         39.37664       86.90014       86.06275
H         40.16090       88.11329       84.99979
N         43.01847       88.10788       86.70194
C         44.20122       87.26754       86.50636
C         44.97130       87.61923       85.20587
O         46.12786       87.99615       85.28900
C         45.06654       87.32584       87.78825
C         46.02075       86.15429       87.83943
C         47.30211       86.22222       87.26846
C         45.59980       84.94829       88.43163
C         48.13333       85.10089       87.26464
C         46.43849       83.83137       88.43388
C         47.70163       83.90541       87.84300
H         43.14058       89.11610       86.58906
H         43.88094       86.20733       86.41424
H         44.37070       87.20934       88.64982
H         45.57038       88.30521       87.94051
H         47.66640       87.13268       86.81957
H         44.61581       84.86782       88.87910
H         49.11141       85.16056       86.80660
H         46.10403       82.90586       88.88428
H         48.34639       83.03730       87.83310
N         44.41691       87.50103       83.95702
C         45.11873       87.74840       82.68549
C         45.84054       89.09100       82.62691
O         46.97196       89.18211       82.17347
C         43.96991       87.75580       81.65852
C         43.00399       86.75844       82.25186
C         43.04218       87.11330       83.73312
H         45.82064       86.90957       82.48068
H         43.44001       88.73625       81.67452
H         44.28314       87.55261       80.61170
H         41.98461       86.75806       81.80990
H         43.45648       85.75007       82.12463
H         42.39561       87.98557       83.97402
H         42.73557       86.22282       84.31987
N         45.18199       90.17594       83.09293
C         45.63444       91.56221       83.09462
C         46.94091       91.71271       83.84387
O         47.83584       92.37903       83.34450
C         44.58464       92.53919       83.69504
C         43.14419       92.30071       83.20916
C         42.44205       91.32085       84.07457
O         41.15749       91.07661       83.86555
O         42.99886       90.82072       85.03450
H         44.27246       89.94754       83.45940
H         45.76353       91.87752       82.03654
H         44.87856       93.56333       83.39359
H         44.59097       92.54244       84.80954
H         43.11204       91.98233       82.14185
H         42.55519       93.22889       83.33891
N         47.12999       91.07319       85.03410
C         48.38048       91.09043       85.76649
H         49.14187       91.74433       85.29223
H         48.20219       91.44205       86.80337
H         48.78923       90.05752       85.80715
H         46.36717       90.50054       85.42289
Ca        39.06954       90.73050       83.45177
O         36.49483       91.84049       84.24245
H         36.39864       92.62223       84.83046
H         35.79689       91.21758       84.56155
O         40.46685       93.15780       81.80020
H         41.29962       93.29149       81.28203
H         39.78695       92.94376       81.11752
O         40.04102       90.08273       80.91618
H         39.76007       89.19905       80.57280
H         39.71718       90.72648       80.24235

Ca 1.0



