%chk=apoCaM-CA-Ng.loop2.water3.frame1212.chk
%nprocshared=20
%mem=10GB
%nosave
#b3lyp/svp scf=(tight,noincore,xqc) Test 
#IOP(5/87=12) Density=Current Pop=(MK,readradii) iop(6/33=2) iop(6/42=6)

apoCaM-CA-Ng.loop2.water3.frame1212 

   -2  1 
C         12.97142       79.57688      105.30863
C         12.35290       80.36221      104.18186
O         12.78291       81.48401      103.95686
H         13.78049       80.16161      105.79698
H         12.21037       79.32880      106.07639
H         13.41976       78.64287      104.90647
N         11.36653       79.85845      103.38233
C         10.76768       78.53331      103.54246
C          9.24728       78.59757      103.58086
O          8.67647       79.64219      103.30147
C         11.26506       77.58972      102.42741
C         10.91237       78.00265      101.01947
O         11.29712       77.31804      100.08629
O         10.18272       79.10535      100.76554
H         11.05177       80.44859      102.59783
H         11.09115       78.08745      104.50426
H         10.85962       76.57028      102.60163
H         12.37283       77.53149      102.50045
N          8.53302       77.49006      103.94600
C          7.07507       77.41440      104.02574
C          6.38707       77.38172      102.66349
O          5.16347       77.38874      102.64178
C          6.49962       78.49283      104.95916
H          9.05692       76.64621      104.22420
H          6.81358       76.44086      104.49843
H          6.99073       78.42897      105.95375
H          6.62802       79.51560      104.55534
H          5.41108       78.32521      105.10706
N          7.08294       77.21395      101.49739
C          6.41023       76.99079      100.21391
C          7.28150       76.26500       99.19026
O          8.47744       76.10814       99.39293
C          5.73651       78.27510       99.67247
C          6.52353       79.56021       99.84523
O          6.03243       80.44914      100.52319
O          7.72882       79.79432       99.28709
H          8.10630       77.12306      101.54167
H          5.61271       76.23305      100.38898
H          4.79832       78.41439      100.25396
H          5.42804       78.13486       98.61473
N          6.68283       75.65866       98.11590
C          7.39347       74.77659       97.19588
C          8.33957       75.51400       96.28485
O          8.32008       76.73369       96.26542
H          5.65985       75.73488       98.00843
H          6.66884       74.23125       96.55389
H          7.95001       74.02311       97.79504
N          9.22346       74.82345       95.50416
C         10.24080       75.48903       94.69146
C         10.14635       75.11745       93.22050
O          9.42470       74.20086       92.85242
C         11.64577       75.11067       95.21523
C         11.91888       75.52488       96.64424
N         13.10063       75.20447       97.21870
O         11.08946       76.14833       97.28874
H          9.21870       73.79199       95.54019
H         10.12095       76.59180       94.75256
H         12.42486       75.58435       94.58069
H         11.76259       74.00658       95.14257
H         13.81373       74.67719       96.69382
H         13.30186       75.47939       98.19164
N         10.87259       75.84026       92.31828
C         10.94323       75.58421       90.88837
C          9.57699       75.56483       90.23211
O          8.79027       76.45828       90.50953
H         11.41949       76.64224       92.66774
H         11.50555       74.64821       90.71901
H         11.53326       76.40462       90.42721
N          9.19800       74.60471       89.33188
C         10.09130       73.56801       88.80522
C         11.21688       74.16499       87.94645
O         12.14199       73.43663       87.61446
C          9.31040       72.52004       87.97065
C          8.29559       71.75615       88.83382
O          8.65630       73.15404       86.90021
H          8.22995       74.64760       88.97674
H         10.54227       73.02139       89.66097
H         10.04249       71.77775       87.57424
H          8.36531       72.43987       86.27477
H          7.77772       70.98977       88.21900
H          8.81835       71.23677       89.66524
H          7.53040       72.43657       89.26069
N         11.18761       75.46324       87.51623
C         12.23644       76.07099       86.68655
C         13.55890       76.19200       87.45507
O         13.54752       75.98585       88.66046
C         11.78916       77.49418       86.19208
C         11.56236       78.47901       87.37960
C         10.55755       77.38693       85.27453
C         11.23740       79.90793       86.94785
H         10.35940       76.02301       87.74526
H         12.38461       75.40912       85.80569
H         12.59288       77.91848       85.56313
H         12.49014       78.52947       87.98626
H         10.74582       78.13437       88.04527
H          9.66672       77.01532       85.81998
H         10.31055       78.37059       84.82624
H         10.77538       76.69744       84.43151
H         11.15017       80.54953       87.85020
H         12.04390       80.30699       86.30027
H         10.26956       79.95776       86.41077
N         14.74154       76.57993       86.87992
C         14.99683       76.73019       85.44743
C         15.18854       78.19067       85.05978
O         15.12404       79.06759       85.90916
C         16.25070       75.90461       85.07200
C         16.08048       74.44376       85.37603
O         15.20525       73.79771       84.82248
O         16.90940       73.83505       86.24570
H         15.54472       76.73908       87.50942
H         14.14124       76.35872       84.84973
H         17.12640       76.29670       85.63604
H         16.47928       75.99435       83.99009
N         15.39537       78.51087       83.74985
C         15.52047       79.87464       83.24300
C         14.18162       80.60135       83.38649
O         13.17589       80.00506       83.03579
C         15.88075       79.82658       81.73522
C         16.19100       81.20177       81.19683
C         15.21874       81.93123       80.49278
C         17.45362       81.77896       81.42479
C         15.50110       83.22310       80.03784
C         17.73443       83.06696       80.95882
C         16.75728       83.79021       80.27015
H         15.45368       77.73963       83.06835
H         16.35163       80.38327       83.77480
H         15.03539       79.36904       81.17473
H         16.76667       79.17792       81.55593
H         14.23691       81.51001       80.31756
H         18.21633       81.23308       81.96658
H         14.74324       83.78781       79.51083
H         18.70708       83.50712       81.13799
H         16.97270       84.79112       79.91904
N         14.07339       81.90768       83.79393
C         15.17807       82.79857       84.08781
C         15.62738       82.73206       85.53369
O         16.64178       83.33239       85.84481
C         14.57869       84.17766       83.78173
C         13.15541       84.00987       84.28962
C         12.80767       82.62060       83.76276
H         16.04843       82.63340       83.43221
H         15.13702       85.04360       84.19653
H         14.51718       84.29814       82.67580
H         13.19495       83.97054       85.40117
H         12.43540       84.80273       83.99623
H         12.02093       82.14588       84.38782
H         12.47037       82.67543       82.70393
N         14.87669       82.10070       86.48391
C         15.21314       82.11335       87.90242
C         15.35162       83.55758       88.37977
O         14.37646       84.29125       88.30082
C         14.08472       81.40129       88.68230
C         14.30108       81.34512       90.19856
C         13.11155       80.71113       90.86523
O         12.00786       81.22636       90.77080
O         13.25569       79.57689       91.57548
H         14.00415       81.63963       86.19830
H         16.15497       81.54555       88.04138
H         13.98717       80.36257       88.29996
H         13.13188       81.93915       88.47673
H         14.42244       82.36864       90.61250
H         15.21940       80.75992       90.41860
N         16.51876       84.07068       88.86677
C         17.75017       83.31857       88.98136
H         18.55216       83.96973       89.38946
H         17.61219       82.45682       89.66686
H         18.07816       82.95925       87.98335
H         16.53619       85.05961       89.16073
Ca         9.11371       78.53275       98.05038
O         12.49439       79.61507       98.09547
H         13.01758       80.22628       97.51817
H         12.92730       79.68055       98.98350
O          9.98253       81.44995       97.75070
H         10.22520       81.88290       98.60720
H          9.32029       82.06004       97.33934
O         10.71324       79.36709       95.41540
H         11.01622       80.30574       95.32865
H         10.51447       79.08437       94.48781

Ca 1.0



