%chk=apoCaM-CA-Ng.loop2.water3.frame621.chk
%nprocshared=20
%mem=10GB
%nosave
#b3lyp/svp scf=(tight,noincore,xqc) Test 
#IOP(5/87=12) Density=Current Pop=(MK,readradii) iop(6/33=2) iop(6/42=6)

apoCaM-CA-Ng.loop2.water3.frame621 

   -2  1 
C         70.08039       27.80636       87.25116
C         69.97651       28.99835       88.15920
O         68.88081       29.51535       88.32309
H         71.12111       27.42375       87.19884
H         69.42191       26.99428       87.62380
H         69.75929       28.09025       86.22599
N         71.08626       29.51429       88.76216
C         71.03862       30.69444       89.61893
C         70.32634       30.37169       90.92047
O         70.92259       29.72158       91.76675
C         72.47808       31.18401       89.91500
C         72.56441       32.41924       90.77558
O         71.56207       32.99307       91.17243
O         73.77624       32.89278       91.12095
H         71.99956       29.07868       88.55996
H         70.50502       31.49932       89.06454
H         72.99246       31.39620       88.95344
H         73.03641       30.36812       90.42616
N         69.04811       30.78707       91.14757
C         68.33742       30.51619       92.39629
C         67.25216       29.47885       92.15683
O         66.99089       29.18083       90.99849
C         67.75942       31.83859       92.91095
H         68.54371       31.27759       90.39181
H         69.04238       30.10541       93.14414
H         67.02897       32.24455       92.17600
H         67.24915       31.73001       93.88274
H         68.57670       32.57971       93.03532
N         66.57341       28.82565       93.14830
C         66.75529       28.94218       94.59939
C         68.14742       28.58205       95.08152
O         68.79074       27.71461       94.51007
C         65.74921       28.01694       95.33491
C         65.81452       26.57780       94.83797
O         64.83979       26.09332       94.28523
O         66.94506       25.84006       94.96474
H         65.85353       28.16398       92.82187
H         66.52933       29.97641       94.92367
H         64.72811       28.41822       95.14801
H         65.91987       28.06053       96.43482
N         68.64012       29.18910       96.19847
C         69.88273       28.80730       96.84579
C         70.95827       29.83442       96.60950
O         70.72345       30.78385       95.87471
H         68.09643       29.94816       96.63838
H         70.26055       27.83781       96.46061
H         69.67715       28.68833       97.93232
N         72.19680       29.72835       97.16570
C         72.61106       28.71062       98.12982
C         73.77966       27.88893       97.59507
O         74.45644       27.24575       98.38623
C         73.01043       29.44835       99.42561
C         71.86931       30.30080       99.92821
N         71.96787       31.65109       99.92282
O         70.83943       29.76952      100.31641
H         72.89211       30.45399       96.92605
H         71.79761       28.00245       98.38990
H         73.88974       30.09269       99.20711
H         73.30447       28.73084      100.22352
H         72.81839       32.11695       99.57380
H         71.18198       32.23603      100.24242
N         74.07509       27.85055       96.26090
C         75.25009       27.18280       95.71774
C         75.32366       25.67438       95.91184
O         76.34608       25.11754       95.53939
H         73.48102       28.36378       95.59329
H         76.14574       27.64208       96.18813
H         75.30393       27.38290       94.62496
N         74.31356       24.94021       96.46271
C         74.39410       23.49280       96.69796
C         73.37985       22.75408       95.83973
O         72.65533       23.38559       95.08288
C         74.19416       23.20533       98.20824
C         75.40264       23.66960       99.02836
O         73.02878       23.84975       98.65987
H         73.43874       25.41446       96.72822
H         75.38415       23.08699       96.39318
H         74.11465       22.10696       98.38155
H         72.57980       23.23896       99.30058
H         75.67521       24.72015       98.80059
H         75.18243       23.58247      100.11332
H         76.27626       23.01818       98.80327
N         73.30010       21.38972       95.88928
C         72.43837       20.60871       95.01040
C         71.17469       20.18853       95.74283
O         71.24325       19.45636       96.71958
C         73.18199       19.35273       94.46423
C         72.23487       18.53029       93.54243
C         74.47050       19.75066       93.72056
C         72.84630       17.24131       92.99977
H         73.90180       20.87534       96.54896
H         72.15594       21.22729       94.13023
H         73.47379       18.72337       95.33545
H         71.90551       19.15802       92.68826
H         71.32851       18.23008       94.11076
H         75.12534       20.37881       94.35893
H         75.06239       18.84786       93.46396
H         74.23186       20.30735       92.78990
H         72.08597       16.71040       92.38849
H         73.71364       17.45278       92.34358
H         73.15795       16.58138       93.83654
N         69.97190       20.59863       95.25933
C         68.66797       20.19349       95.74342
C         67.81010       19.54653       94.64291
O         66.74418       19.06214       94.99760
C         67.97187       21.42272       96.36997
C         67.92904       22.61128       95.45315
O         68.65492       23.70596       95.75286
O         67.25677       22.58898       94.43782
H         69.97382       21.25991       94.49508
H         68.78510       19.43149       96.54348
H         68.56600       21.72069       97.25931
H         66.94269       21.17994       96.70994
N         68.15825       19.50078       93.31041
C         67.28991       18.86624       92.31254
C         67.57707       19.32941       90.87669
O         68.00727       18.52725       90.05808
C         67.33700       17.31809       92.44349
C         66.34640       16.65459       91.50290
C         66.78217       15.75706       90.50930
C         64.97312       16.94618       91.60104
C         65.86128       15.17595       89.62912
C         64.05953       16.36803       90.71675
C         64.50227       15.48463       89.73075
H         69.02062       19.95520       92.98173
H         66.24731       19.18803       92.50876
H         67.08252       17.01256       93.47887
H         68.37334       16.96763       92.23559
H         67.83218       15.51204       90.40810
H         64.60640       17.62949       92.35518
H         66.20041       14.48971       88.86355
H         63.00740       16.60934       90.79533
H         63.79123       15.04033       89.04602
N         67.25281       20.59216       90.45763
C         67.29994       21.01825       89.06642
C         68.71146       21.30229       88.59200
O         68.89455       21.54850       87.40772
C         66.39668       22.25486       89.05549
C         66.67497       22.85484       90.41665
C         66.70920       21.62081       91.31117
H         66.85192       20.24821       88.39966
H         66.51974       22.93739       88.18775
H         65.33845       21.90721       89.08059
H         67.69438       23.29365       90.37155
H         65.96094       23.62883       90.75729
H         67.36289       21.82224       92.17801
H         65.69228       21.31328       91.63567
N         69.76085       21.27651       89.45572
C         71.14289       21.38131       89.03314
C         71.50463       20.07568       88.34675
O         71.99939       20.09295       87.22846
C         72.07244       21.62129       90.24131
C         71.84756       22.96277       90.98859
C         70.55475       23.07800       91.76212
O         69.72246       24.13367       91.62272
O         70.28763       22.22679       92.57461
H         69.58225       21.10885       90.45122
H         71.28586       22.24993       88.35033
H         73.11507       21.64489       89.85068
H         72.00786       20.77707       90.95902
H         71.95421       23.82288       90.29584
H         72.66145       23.03086       91.74413
N         71.21720       18.89032       88.96032
C         71.46735       17.60347       88.35039
H         72.55720       17.45012       88.21443
H         71.07083       16.79670       89.00572
H         70.94930       17.53721       87.36971
H         70.76139       18.89771       89.88549
Ca        68.30636       25.01449       93.25518
O         69.80054       26.82954       91.36566
H         70.47556       26.31918       90.85286
H         70.34166       27.40987       91.95156
O         66.45149       26.08103       91.47329
H         66.61023       26.28552       90.51892
H         65.49508       25.83216       91.52783
O         71.10120       25.90838       94.39266
H         71.60193       26.75180       94.52592
H         71.09089       25.48307       95.28638

Ca 1.0



