%chk=apoCaM-CA-Ng.loop4.water4.frame659.chk
%nprocshared=20
%mem=10GB
%nosave
#b3lyp/svp scf=(tight,noincore,xqc) Test 
#IOP(5/87=12) Density=Current Pop=(MK,readradii) iop(6/33=2) iop(6/42=6)

apoCaM-CA-Ng.loop4.water4.frame659 

   -3  1 
C         83.90868       54.45375      105.12409
C         83.64898       55.78243      105.77098
O         82.52994       56.04201      106.18608
H         84.69400       53.90897      105.68929
H         82.98871       53.83251      105.10143
H         84.25897       54.61172      104.08379
N         84.67247       56.66692      105.92235
C         84.56045       57.99064      106.53290
C         83.87669       57.91642      107.88655
O         83.01571       58.73740      108.18075
C         83.84100       58.98400      105.59746
C         84.43998       58.98908      104.22531
O         85.60385       59.30496      104.03607
O         83.66487       58.58654      103.20761
H         85.61276       56.37163      105.61647
H         85.59670       58.36439      106.68662
H         83.87186       60.01128      106.02078
H         82.77467       58.68222      105.50480
N         84.16078       56.89522      108.73957
C         83.48243       56.75876      110.02327
C         83.92074       57.87656      110.96085
O         84.96342       58.46743      110.71210
C         83.65625       55.31533      110.61842
C         85.11438       54.79311      110.79002
C         82.88691       54.31865      109.72937
C         85.95362       55.52590      111.83161
H         84.82690       56.17812      108.42673
H         82.39894       56.89049      109.82815
H         83.16993       55.26818      111.61233
H         85.66172       54.77929      109.82605
H         85.05953       53.73764      111.13589
H         81.81527       54.60646      109.66425
H         83.30799       54.28219      108.70241
H         82.92823       53.29687      110.16395
H         86.93928       55.02127      111.91958
H         86.15624       56.56844      111.54128
H         85.45010       55.49635      112.82041
N         83.20454       58.27534      112.05185
C         81.85225       57.84281      112.40142
C         80.86356       58.35892      111.35719
O         80.09173       57.57950      110.81663
C         81.50363       58.37491      113.80773
C         80.17683       57.86964      114.29889
O         79.20955       58.73919      114.64498
O         79.97951       56.66987      114.41270
H         83.64089       58.99850      112.64713
H         81.80908       56.73822      112.47197
H         81.51404       59.48658      113.81448
H         82.28067       58.01992      114.52114
N         80.90222       59.66694      110.97558
C         80.11400       60.22981      109.89099
C         78.66815       60.47248      110.25180
O         78.41793       61.15147      111.23758
H         81.60950       60.28219      111.40582
H         80.22830       59.61745      108.96969
H         80.53002       61.23505      109.66068
N         77.66672       60.05160      109.42356
C         76.26811       60.44615      109.59039
C         75.30974       59.26774      109.73052
O         74.11749       59.51852      109.84750
C         75.87764       61.42446      108.45150
C         76.11197       60.92113      107.05041
O         76.91262       61.49127      106.32609
O         75.41750       59.88112      106.56464
H         77.91679       59.51160      108.58063
H         76.13551       61.03054      110.52742
H         76.49687       62.33939      108.58464
H         74.81452       61.73232      108.55570
N         75.73238       57.96938      109.80168
C         74.80910       56.86245      110.04183
C         73.86380       56.57168      108.88754
O         73.01855       55.70075      109.03216
H         76.73851       57.75290      109.75663
H         74.22514       57.07961      110.96200
H         75.39322       55.93379      110.22265
N         73.98954       57.21049      107.69307
C         73.21758       56.92524      106.49171
C         73.42160       55.49188      106.02772
O         72.52263       54.90523      105.44220
C         71.73550       57.34443      106.59520
C         71.59082       58.84463      106.90087
C         70.15775       59.29389      106.76209
N         69.48839       59.83357      107.80635
O         69.59838       59.18485      105.68048
H         74.74106       57.89491      107.58466
H         73.65734       57.54790      105.67930
H         71.20091       56.74626      107.36444
H         71.26434       57.14428      105.60722
H         72.19431       59.43513      106.17787
H         71.97575       59.05024      107.92321
H         69.93802       59.94290      108.72626
H         68.51290       60.14765      107.69100
N         74.63927       54.90379      106.19384
C         75.01624       53.61729      105.62016
C         76.19353       53.78422      104.66087
O         76.57386       52.79874      104.04112
C         75.35010       52.58442      106.73657
C         76.46600       53.06061      107.68600
C         74.09601       52.22710      107.54486
H         75.35571       55.41281      106.72912
H         74.18075       53.20584      105.01224
H         75.69505       51.64681      106.24610
H         76.15113       53.95490      108.26448
H         76.71115       52.25990      108.41592
H         77.38934       53.30400      107.12028
H         74.33608       51.44561      108.29770
H         73.69174       53.11689      108.07099
H         73.31214       51.82101      106.87030
N         76.83601       54.98051      104.49964
C         77.99795       55.17779      103.64985
C         77.73995       56.33068      102.67145
O         76.66880       56.92524      102.70587
C         79.19201       55.44243      104.59555
C         80.50620       55.55520      103.88265
N         81.19424       56.71673      103.89898
O         80.94390       54.59905      103.25881
H         76.54348       55.80786      105.03661
H         78.21545       54.25952      103.06088
H         79.28298       54.59879      105.31575
H         78.98695       56.36477      105.18133
H         80.84000       57.53818      104.41150
H         82.08458       56.78735      103.39198
N         78.69067       56.70062      101.76951
C         78.55865       57.77715      100.79625
C         78.84452       57.21903       99.40973
O         79.34611       56.10457       99.31227
C         79.59252       58.87150      101.16765
C         79.71530       59.97657      100.14706
C         80.92296       60.14014       99.44565
C         78.63630       60.83033       99.86503
C         81.04272       61.12213       98.46216
C         78.75885       61.81431       98.87741
C         79.95794       61.95922       98.16921
O         80.05550       62.89987       97.20862
H         79.58023       56.18963      101.74857
H         77.52997       58.20036      100.81306
H         80.58223       58.37232      101.27304
H         79.33960       59.30571      102.15936
H         81.76991       59.49584       99.64662
H         77.69810       60.72093      100.39432
H         81.97640       61.22313       97.92308
H         77.91746       62.45801       98.65479
H         80.86249       63.01855       96.68714
N         78.54381       57.92880       98.28299
C         78.89595       57.45689       96.95400
C         79.61884       58.57173       96.21334
O         78.93233       59.50400       95.81467
C         77.60161       57.00213       96.22652
C         77.80485       56.03338       95.04284
C         78.43089       56.57386       93.78503
O         78.61809       55.81394       92.84864
O         78.75108       57.87087       93.64320
H         78.02515       58.81484       98.36313
H         79.52676       56.56307       97.05019
H         76.95658       57.86596       95.95083
H         77.02542       56.40374       96.96746
H         76.80325       55.64466       94.75439
H         78.40907       55.17365       95.40455
N         80.96637       58.63378       95.98035
C         82.02084       57.79309       96.55156
C         81.86593       56.32297       96.22946
O         81.81560       55.95780       95.06313
C         83.39860       58.28961       96.02108
C         84.64739       57.57134       96.57350
C         84.89619       57.89134       98.01760
O         85.91272       58.47878       98.35269
O         83.98907       57.55685       98.94516
H         81.27883       59.43610       95.40920
H         81.98816       57.93495       97.64998
H         83.51035       59.37782       96.22789
H         83.39890       58.15791       94.91697
H         85.52502       57.92578       95.98932
H         84.56976       56.47304       96.43039
N         81.82551       55.41275       97.24350
C         81.72900       53.99096       97.00798
H         80.78968       53.75820       96.46501
H         82.60347       53.64810       96.41521
H         81.72702       53.44873       97.97833
H         81.88253       55.73559       98.22184
Ca        84.20541       58.21832      101.07158
O         87.10089       56.26404      100.11167
H         88.08798       56.32839      100.07043
H         86.89333       55.37434       99.72976
O         87.76595       59.56294      101.28610
H         88.60904       59.81578      100.83227
H         87.62104       60.27791      101.95573
O         84.41742       55.27709      101.51199
H         84.89705       54.43104      101.32753
H         83.54874       55.17978      101.04705
O         84.57202       61.17942      101.36801
H         84.35581       61.47882      100.44947
H         83.69331       61.11129      101.81957

Ca 1.0



