%chk=apoCaM-CA-Ng.loop2.water3.frame20.chk
%nprocshared=20
%mem=10GB
%nosave
#b3lyp/svp scf=(tight,noincore,xqc) Test 
#IOP(5/87=12) Density=Current Pop=(MK,readradii) iop(6/33=2) iop(6/42=6)

apoCaM-CA-Ng.loop2.water3.frame20 

   -2  1 
C         57.54467       49.76149       35.06608
C         56.54537       50.86392       34.87519
O         55.56154       50.91692       35.59937
H         58.54060       50.19204       35.29876
H         57.23880       49.08660       35.89363
H         57.61686       49.16480       34.13130
N         56.73938       51.78810       33.89512
C         55.78841       52.85444       33.59947
C         54.47149       52.25484       33.13760
O         53.43338       52.59233       33.68867
C         56.36306       53.78975       32.51637
C         55.46466       54.97171       32.27346
O         55.18029       55.82122       33.27999
O         54.99803       55.17333       31.16410
H         57.59905       51.71707       33.32745
H         55.63384       53.46720       34.51674
H         56.52335       53.22683       31.57028
H         57.34678       54.17925       32.85737
N         54.46406       51.30610       32.15533
C         53.27340       50.62301       31.66359
C         52.47541       49.96869       32.78614
O         51.25770       49.89740       32.68703
C         52.42074       51.57226       30.81071
H         55.36791       51.00780       31.75748
H         53.61058       49.80825       30.98465
H         52.03264       52.41593       31.41791
H         53.03428       51.97988       29.97894
H         51.56283       51.02456       30.36391
N         53.10125       49.48533       33.90120
C         52.41183       48.84243       35.01378
C         51.31597       49.75350       35.56270
O         50.14782       49.39290       35.49756
C         51.89417       47.45556       34.56081
C         51.35471       46.61665       35.69056
O         51.34587       47.07466       36.95708
O         50.93312       45.49563       35.45787
H         54.12325       49.57653       33.97578
H         53.15631       48.65260       35.82030
H         52.74263       46.89371       34.11251
H         51.10781       47.57183       33.78542
N         51.62758       50.96397       36.11027
C         50.61536       51.90650       36.57306
C         50.63766       52.14512       38.06842
O         49.80502       52.91366       38.52934
H         52.61906       51.23875       36.18586
H         49.59307       51.54763       36.32738
H         50.76223       52.87108       36.04199
N         51.51399       51.51136       38.90159
C         51.48802       51.68492       40.35568
C         51.82582       53.12173       40.75550
O         52.10492       53.94483       39.89415
C         52.42145       50.65308       41.04612
C         51.92921       49.19323       40.91283
N         50.59913       49.02393       41.49062
O         51.92413       48.76405       39.58396
H         52.19945       50.86165       38.49498
H         50.45502       51.49015       40.71991
H         52.46597       50.85272       42.13595
H         53.45529       50.74735       40.65137
H         50.64962       49.22860       42.51435
H         50.31555       48.02364       41.38749
N         51.77413       53.49667       42.06698
C         51.92535       54.86806       42.52977
C         53.16068       55.02508       43.37966
O         53.34723       54.25686       44.31337
H         51.56562       52.78648       42.78432
H         51.02998       55.12037       43.13721
H         51.95913       55.58797       41.68446
N         54.04440       56.03630       43.12642
C         55.27101       56.22745       43.89851
C         56.27991       55.11526       43.62073
O         57.25200       55.00647       44.35365
C         55.87679       57.62447       43.58867
C         57.08917       57.97963       44.46068
O         56.23307       57.69810       42.23129
H         53.81670       56.70892       42.37770
H         54.99061       56.21079       44.97595
H         55.07612       58.36988       43.80859
H         56.28674       58.66172       41.99818
H         57.41014       59.02040       44.24475
H         56.82491       57.90923       45.53682
H         57.95364       57.31975       44.24700
N         56.12709       54.26955       42.56110
C         57.07393       53.21347       42.22311
C         56.37931       51.86765       42.31877
O         55.19509       51.82582       42.62669
C         57.69496       53.48081       40.80974
C         56.63806       53.45184       39.66737
C         58.47170       54.81132       40.83550
C         57.23793       53.61008       38.26641
H         55.31222       54.37586       41.94310
H         57.91132       53.18443       42.95398
H         58.43681       52.67985       40.60385
H         55.88301       54.25339       39.80356
H         56.11453       52.47260       39.68847
H         59.02980       54.97274       39.89173
H         57.78523       55.66943       40.99462
H         59.22272       54.79872       41.65372
H         57.99517       52.82104       38.07467
H         56.43259       53.52015       37.50647
H         57.70244       54.60875       38.13580
N         57.05631       50.71872       42.03779
C         56.41048       49.41436       41.99877
C         57.15989       48.36958       42.84399
O         56.77937       47.20826       42.81010
C         56.27653       49.04475       40.50745
C         55.32004       47.92312       40.21561
O         55.10162       47.62134       39.05400
O         54.66341       47.27949       41.19999
H         58.04243       50.77718       41.74279
H         55.37251       49.48592       42.39259
H         57.27372       48.83961       40.07019
H         55.85391       49.92714       39.97706
N         58.19615       48.70679       43.67304
C         58.87907       47.73199       44.52624
C         59.71218       46.76257       43.68800
O         60.56414       47.24123       42.95154
C         59.83278       48.44730       45.51467
C         60.50019       47.45465       46.44396
C         59.74604       46.75617       47.40409
C         61.87920       47.20192       46.34234
C         60.35918       45.81550       48.23775
C         62.48728       46.25677       47.17469
C         61.72807       45.56334       48.12059
H         58.47622       49.69495       43.75240
H         58.10950       47.21396       45.13395
H         59.28144       49.19555       46.12471
H         60.59823       48.99936       44.92533
H         58.68273       46.93524       47.50360
H         62.48074       47.72160       45.60746
H         59.77206       45.27798       48.97141
H         63.54710       46.05785       47.08255
H         62.20029       44.83015       48.76187
N         59.59089       45.39851       43.77692
C         60.42906       44.45143       43.04811
C         60.45514       44.71866       41.56210
O         61.52716       44.78865       40.97822
C         59.77611       43.09345       43.33422
C         59.25871       43.29766       44.73625
C         58.66317       44.70005       44.64507
H         61.45799       44.48424       43.47394
H         58.87767       42.95093       42.69176
H         60.45249       42.22370       43.19092
H         58.55931       42.51956       45.10748
H         60.14361       43.33634       45.41412
H         57.65783       44.70767       44.16962
H         58.61319       45.10352       45.67301
N         59.28463       44.93256       40.90382
C         59.18978       45.25877       39.48709
C         60.02613       46.48800       39.18639
O         60.88533       46.42054       38.31794
C         57.71575       45.50413       39.10440
C         56.85581       44.23345       39.24612
C         55.41059       44.51520       38.96025
O         54.48304       44.29542       39.91243
O         55.06711       44.93580       37.86725
H         58.41976       44.91234       41.46449
H         59.57041       44.41089       38.87450
H         57.65537       45.85487       38.05052
H         57.31776       46.29836       39.76444
H         56.92317       43.82524       40.27521
H         57.22176       43.45639       38.54209
N         59.86339       47.63447       39.90065
C         60.68473       48.80332       39.67409
H         61.75570       48.54730       39.82779
H         60.53851       49.17719       38.63902
H         60.40854       49.60570       40.39072
H         59.15958       47.66864       40.65173
Ca        52.35012       46.52434       39.67098
O         51.42498       45.75077       42.43935
H         52.29319       45.47646       42.82803
H         50.91362       44.90797       42.34784
O         49.54277       45.66619       39.22044
H         49.36049       45.76484       38.25248
H         49.15245       46.47832       39.63053
O         51.95425       43.75342       38.11795
H         51.31158       43.18704       37.62209
H         52.50088       44.18200       37.41274

Ca 1.0



