%chk=apoCaM-CA-Ng.loop1.water3.frame133.chk
%nprocshared=20
%mem=10GB
%nosave
#b3lyp/svp scf=(tight,noincore,xqc) Test 
#IOP(5/87=12) Density=Current Pop=(MK,readradii) iop(6/33=2) iop(6/42=6)

apoCaM-CA-Ng.loop1.water3.frame133 

   0  1 
C         39.59800       69.21505      -19.45896
C         38.68071       68.33007      -20.25150
O         39.02725       67.92256      -21.35059
H         40.54474       69.40407      -20.00598
H         39.09484       70.18760      -19.26804
H         39.83068       68.73612      -18.48438
N         37.46682       68.00430      -19.73623
C         36.48156       67.17648      -20.42362
C         36.10576       67.74214      -21.78733
O         36.16529       67.00798      -22.76201
C         35.21750       66.96297      -19.55087
C         34.48383       68.22177      -19.14619
O         33.34230       68.41420      -19.52731
O         35.05598       69.12258      -18.32575
H         37.24794       68.36663      -18.79820
H         36.91572       66.16396      -20.58618
H         35.49484       66.41274      -18.62619
H         34.52730       66.31403      -20.12544
N         35.70700       69.03578      -21.92583
C         35.25141       69.62085      -23.18851
C         36.33605       69.57413      -24.25829
O         37.43865       70.00881      -23.95628
C         34.81711       71.08867      -22.98915
C         33.64290       71.21095      -22.00542
C         33.09908       72.64206      -21.96570
C         31.98854       72.82479      -20.91697
N         30.84707       71.93465      -21.14152
H         35.72431       69.62574      -21.08283
H         34.35097       69.08569      -23.51782
H         34.48474       71.48293      -23.97378
H         35.67173       71.70935      -22.63966
H         33.96395       70.91999      -20.98438
H         32.83358       70.52707      -22.33737
H         32.70891       72.91061      -22.97216
H         33.92436       73.34341      -21.71319
H         31.64302       73.88094      -20.96586
H         32.40073       72.64565      -19.89916
H         30.48788       72.03943      -22.11785
H         31.11553       70.94056      -20.96184
H         30.08634       72.18410      -20.46955
N         36.14058       69.14362      -25.54867
C         34.89857       68.66741      -26.16353
C         33.76327       69.68740      -26.04482
O         32.72803       69.36701      -25.47737
C         34.50445       67.26539      -25.66579
C         35.50252       66.19382      -26.01282
O         35.31893       65.06382      -25.59141
O         36.58400       66.42280      -26.78634
H         36.95075       69.20989      -26.18541
H         35.07240       68.52682      -27.25357
H         33.54415       66.98117      -26.14570
H         34.34924       67.25545      -24.57447
N         33.83435       70.92660      -26.61020
C         34.99492       71.38541      -27.35345
C         34.73254       72.67998      -28.10846
O         33.91894       73.47406      -27.65863
H         32.99930       71.52912      -26.54580
H         35.19937       70.59642      -28.09847
H         35.86657       71.50994      -26.67607
N         35.32055       72.95612      -29.31312
C         36.35511       72.13090      -29.93447
C         35.81027       71.31178      -31.08691
O         34.69047       71.52753      -31.53094
C         37.57889       72.98300      -30.33292
C         37.32760       74.02422      -31.39843
O         36.12207       74.16619      -31.98362
O         38.24451       74.74979      -31.74719
H         35.00287       73.79955      -29.81317
H         36.74672       71.40080      -29.20281
H         38.38543       72.31192      -30.69963
H         37.95169       73.49584      -29.42014
N         36.55863       70.28124      -31.56475
C         36.14207       69.38001      -32.62005
C         34.84336       68.67786      -32.30762
O         33.97397       68.65547      -33.16667
H         37.47644       70.09677      -31.13074
H         36.92795       68.60125      -32.73525
H         36.06056       69.92416      -33.58591
N         34.64523       68.06876      -31.10311
C         33.46709       67.25490      -30.81259
C         32.58752       67.91125      -29.75081
O         32.98086       68.90436      -29.15791
C         33.95785       65.84184      -30.36885
C         34.87832       65.18258      -31.40453
O         32.89616       64.97026      -30.08969
H         35.37087       68.15480      -30.37423
H         32.83773       67.15486      -31.72274
H         34.54884       65.96083      -29.43215
H         32.38531       64.83434      -30.92939
H         35.20945       64.19340      -31.02556
H         34.33628       65.03305      -32.36178
H         35.78157       65.79986      -31.59011
N         31.36008       67.37745      -29.47535
C         30.46943       67.83654      -28.40663
C         30.34939       66.78233      -27.31543
O         29.72796       67.06156      -26.29689
C         29.02986       68.12559      -28.94416
C         28.37258       66.84225      -29.54687
C         29.03966       69.28301      -29.95023
C         26.87196       66.96801      -29.79727
H         31.05853       66.57013      -30.03333
H         30.88961       68.74877      -27.92791
H         28.41600       68.44774      -28.07206
H         28.47403       65.99401      -28.83762
H         28.87472       66.55315      -30.49382
H         28.00804       69.53980      -30.26608
H         29.47808       70.18840      -29.48038
H         29.63431       69.01722      -30.84923
H         26.34683       67.19234      -28.84412
H         26.64344       67.75085      -30.54515
H         26.48856       65.99818      -30.18292
N         30.82630       65.52066      -27.49586
C         30.61612       64.44524      -26.55169
C         31.45976       64.72465      -25.34422
O         32.67010       64.77286      -25.48751
C         31.00692       63.08098      -27.18012
C         30.19110       62.78410      -28.45209
O         30.78333       62.06233      -26.24040
H         31.31454       65.28608      -28.35921
H         29.53413       64.39679      -26.29149
H         32.08977       63.11149      -27.45053
H         31.27005       61.26058      -26.56640
H         30.49567       61.80353      -28.87312
H         29.10583       62.75874      -28.22190
H         30.36313       63.54091      -29.24489
N         30.90527       64.90514      -24.12008
C         31.71679       65.16630      -22.94128
C         31.79918       63.89795      -22.12116
O         31.08214       62.94429      -22.39757
C         31.13558       66.37683      -22.15969
C         31.21149       67.66635      -22.98666
O         31.83851       66.57247      -20.96397
H         29.88431       64.79947      -24.00796
H         32.76685       65.39730      -23.22881
H         30.06852       66.15100      -21.92317
H         31.25274       67.11622      -20.37359
H         30.64491       67.56762      -23.93271
H         30.78028       68.51513      -22.41328
H         32.26921       67.90511      -23.21971
N         32.69874       63.81067      -21.10612
C         32.81490       62.65656      -20.23267
C         34.24169       62.10672      -20.18488
O         34.47077       61.16663      -19.43816
C         32.29616       63.12368      -18.86065
C         32.09931       61.99859      -17.83405
C         31.40738       62.48507      -16.55120
C         29.95545       62.94692      -16.78485
N         29.31600       63.31596      -15.52471
H         33.29445       64.62379      -20.90228
H         32.14688       61.83693      -20.57754
H         31.30498       63.57198      -19.07057
H         32.95401       63.91922      -18.44455
H         33.08598       61.58689      -17.54372
H         31.49117       61.18156      -18.28056
H         32.00185       63.30540      -16.09306
H         31.38673       61.63019      -15.84145
H         29.37931       62.12057      -17.25822
H         29.91998       63.82740      -17.45898
H         28.33139       63.61115      -15.71721
H         29.30395       62.49735      -14.87444
H         29.82970       64.11377      -15.08493
N         35.25827       62.61000      -20.95135
C         36.63487       62.14010      -20.79794
C         37.12784       62.55200      -19.42612
O         37.18086       63.74244      -19.14428
C         37.56541       62.74260      -21.86949
C         37.25802       62.20841      -23.28039
C         38.03387       62.93690      -24.34332
O         37.78637       62.68121      -25.63992
O         38.78675       63.85484      -24.05458
H         35.06544       63.35475      -21.63656
H         36.66894       61.03269      -20.90609
H         38.62431       62.48674      -21.63924
H         37.45894       63.85081      -21.84378
H         36.18294       62.36690      -23.50664
H         37.47387       61.11912      -23.33203
N         37.48713       61.61534      -18.50892
C         37.93653       61.98009      -17.18379
H         38.85625       62.59905      -17.25237
H         37.14208       62.55447      -16.66027
H         38.16122       61.06610      -16.59522
H         37.42973       60.61465      -18.75047
Ca        37.87508       64.57974      -26.83070
O         37.00748       62.82692      -29.18319
H         37.17481       63.03267      -30.13674
H         37.88940       62.54073      -28.83581
O         38.78672       66.86720      -24.98733
H         39.32641       67.34699      -24.31183
H         38.03892       66.47439      -24.47182
O         39.19492       65.83582      -29.14681
H         38.88838       65.66143      -30.07180
H         39.35381       66.81245      -29.11422

Ca 1.0



