%chk=apoCaM-CA-Ng.loop1.water3.frame1135.chk
%nprocshared=20
%mem=10GB
%nosave
#b3lyp/svp scf=(tight,noincore,xqc) Test 
#IOP(5/87=12) Density=Current Pop=(MK,readradii) iop(6/33=2) iop(6/42=6)

apoCaM-CA-Ng.loop1.water3.frame1135 

   0  1 
C         96.16093       45.74480       87.83017
C         97.58450       45.87735       87.38071
O         97.99203       46.97695       87.03196
H         95.59093       45.09810       87.12884
H         96.13717       45.30024       88.84549
H         95.67419       46.74335       87.86518
N         98.40046       44.78368       87.34137
C         99.79393       44.84979       86.90174
C         99.89966       44.46084       85.43317
O        100.71102       43.62089       85.06813
C        100.71054       44.05240       87.87115
C        100.43353       42.56736       87.98092
O         99.57491       42.02122       87.30593
O        101.15201       41.82916       88.84883
H         98.00247       43.87535       87.62141
H        100.13620       45.90369       86.94418
H        100.59280       44.48694       88.88723
H        101.77155       44.17998       87.56629
N         99.06455       45.05442       84.52990
C         99.01756       44.71900       83.11467
C        100.28908       45.14583       82.39129
O        100.89972       44.27728       81.78452
C         97.73279       45.25557       82.42658
C         96.41063       44.85484       83.12792
C         96.30912       43.35550       83.44893
C         94.91643       42.98844       83.97491
N         94.88498       41.60004       84.43452
H         98.37731       45.73185       84.87842
H         98.93769       43.61222       83.02762
H         97.71453       44.84168       81.39494
H         97.72957       46.35831       82.33140
H         95.57452       45.15876       82.46149
H         96.29130       45.41498       84.08121
H         97.05900       43.10926       84.23201
H         96.51964       42.75085       82.54054
H         94.17436       43.13126       83.15752
H         94.63781       43.65222       84.82317
H         95.50967       41.49257       85.26733
H         93.90873       41.35221       84.71437
H         95.19863       40.95336       83.67494
N        100.81998       46.40884       82.41532
C        100.27107       47.57524       83.10760
C        101.01357       47.87790       84.38843
O        102.00039       47.22744       84.69916
C        100.19510       48.78969       82.16013
C        101.41019       49.01984       81.29111
O        102.64715       49.37571       81.72858
O        101.25499       48.86886       80.09033
H        101.72725       46.53194       81.93907
H         99.24713       47.37426       83.46099
H         99.92571       49.71798       82.69997
H         99.35474       48.57542       81.46137
N        100.48616       48.78917       85.25712
C        101.01638       48.99995       86.59264
C        102.29650       49.78336       86.60149
O        102.64760       50.36569       85.59681
H         99.60924       49.27123       85.00564
H        101.13645       48.01880       87.09368
H        100.29407       49.60148       87.18485
N        103.03093       49.87446       87.74311
C        104.18692       50.76602       87.89018
C        104.09303       51.48066       89.23883
O        103.32438       51.03399       90.07887
C        105.50270       49.97139       87.71765
C        105.54087       49.38080       86.33231
O        105.46490       50.20088       85.25679
O        105.54506       48.17029       86.18723
H        102.72847       49.30636       88.54856
H        104.14170       51.53809       87.09561
H        105.55685       49.16681       88.48512
H        106.39028       50.62002       87.83742
N        104.78890       52.60853       89.56487
C        105.72079       53.33883       88.72719
C        105.09822       53.93748       87.48973
O        103.94861       54.35648       87.51532
H        104.63607       52.99440       90.51020
H        106.59793       52.71537       88.47175
H        106.11327       54.19472       89.31722
N        105.86802       54.07796       86.37710
C        105.41384       54.69475       85.13976
C        104.27667       53.90464       84.51980
O        104.40572       52.70796       84.32022
C        106.57275       54.80536       84.11475
C        107.68016       55.75570       84.58657
O        106.06579       55.29204       82.89943
H        106.84332       53.74832       86.42748
H        105.07176       55.73479       85.34469
H        107.00673       53.79106       83.96036
H        106.67461       54.95636       82.19227
H        108.43848       55.87136       83.78216
H        107.25812       56.75882       84.81133
H        108.19289       55.36548       85.48807
N        103.16300       54.56962       84.10763
C        102.06263       54.01891       83.32885
C        102.56101       53.49670       81.98308
O        103.29752       52.52223       81.91925
C        101.19516       52.96224       84.06671
C        100.79725       53.38305       85.50698
C         99.93013       52.63723       83.23854
C        100.09484       54.74291       85.62489
H        103.11596       55.58426       84.28640
H        101.37695       54.87329       83.13848
H        101.77681       52.02684       84.14370
H        101.71106       53.42149       86.13486
H        100.13345       52.60029       85.93779
H         99.26257       53.51931       83.15078
H        100.19156       52.31381       82.20890
H         99.35874       51.81292       83.71408
H         99.15265       54.77739       85.04218
H         99.84569       54.93406       86.68988
H        100.76288       55.56207       85.28780
N        102.10836       54.08954       80.85237
C        102.33626       53.57594       79.50758
C        103.71051       53.89603       78.91108
O        103.98356       53.38378       77.83302
C        101.19887       54.09477       78.57579
C        101.16820       55.63277       78.45142
O         99.95079       53.67235       79.06671
H        101.43047       54.84698       80.98655
H        102.24186       52.46567       79.54267
H        101.33916       53.68492       77.55053
H         99.93477       52.68084       79.01378
H        100.94089       56.14041       79.41127
H        102.13646       56.02272       78.07828
H        100.36393       55.93549       77.75034
N        104.59175       54.77445       79.47814
C        105.81068       55.19433       78.77475
C        106.88845       54.12076       78.81929
O        107.33257       53.79166       79.90993
C        106.38829       56.50557       79.37262
C        107.53923       57.05253       78.51069
O        105.38953       57.48560       79.50908
H        104.32555       55.24995       80.35296
H        105.53026       55.43084       77.72364
H        106.78578       56.30095       80.38672
H        105.01892       57.66928       78.60739
H        107.16226       57.32097       77.50001
H        107.97330       57.95719       78.98293
H        108.34794       56.30077       78.39250
N        107.38970       53.56036       77.67506
C        108.48023       52.58463       77.67116
C        108.14230       51.41987       78.57077
O        108.83842       51.17463       79.54854
C        109.83538       53.25412       78.01550
C        110.38135       54.04022       76.80971
C        111.72368       54.70895       77.13763
C        112.48825       55.09817       75.86273
N        113.75882       55.74262       76.19541
H        106.98204       53.82937       76.76832
H        108.59571       52.14949       76.65439
H        110.59056       52.45773       78.20987
H        109.75785       53.87992       78.93002
H        109.66014       54.80651       76.45026
H        110.53701       53.29860       75.99390
H        112.37073       54.00133       77.69829
H        111.53302       55.60013       77.77590
H        111.87825       55.77916       75.23051
H        112.69920       54.17358       75.27657
H        114.27108       55.97243       75.31329
H        113.58231       56.62537       76.72706
H        114.35172       55.09874       76.76898
N        107.07332       50.63569       78.26166
C        106.67274       49.50036       79.06991
C        105.25344       49.69770       79.56854
O        105.13262       49.92691       80.76149
C        106.93502       48.16826       78.33816
C        108.44328       47.91137       78.20040
C        108.69523       46.59469       77.53084
O        108.45120       46.44995       76.34356
O        109.18077       45.56097       78.24389
H        106.53154       50.85521       77.41353
H        107.29828       49.45498       79.99108
H        106.47833       48.13907       77.33425
H        106.50622       47.33956       78.94239
H        108.87842       47.88199       79.22239
H        108.95520       48.71797       77.62915
N        104.11191       49.62794       78.82253
C        103.96559       49.30378       77.42255
H        103.23923       50.00544       76.96393
H        104.89462       49.38329       76.84694
H        103.53686       48.27953       77.33940
H        103.23151       49.77210       79.32052
Ca       104.03822       49.81165       83.49757
O        104.53275       47.20738       83.23388
H        105.07222       47.10275       84.05475
H        103.89360       46.45669       83.25720
O        107.04094       48.89472       82.82098
H        106.75490       48.13327       82.25720
H        107.34013       48.48334       83.66970
O        106.40101       51.82132       82.51149
H        106.31951       52.33865       81.67332
H        107.32932       51.48037       82.50595

Ca 1.0



