%chk=apoCaM-CA-Ng.loop2.water4.frame413.chk
%nprocshared=20
%mem=10GB
%nosave
#b3lyp/svp scf=(tight,noincore,xqc) Test 
#IOP(5/87=12) Density=Current Pop=(MK,readradii) iop(6/33=2) iop(6/42=6)

apoCaM-CA-Ng.loop2.water4.frame413 

   -2  1 
C         95.16160       97.08097       -3.83870
C         95.64190       98.29155       -4.58832
O         96.21296       98.12856       -5.65706
H         94.42757       96.52636       -4.46127
H         96.01991       96.41458       -3.61176
H         94.66881       97.36108       -2.88384
N         95.42527       99.54504       -4.09515
C         95.82531      100.76581       -4.78412
C         96.70997      101.61213       -3.88516
O         96.29249      101.94901       -2.78488
C         94.56162      101.55681       -5.17506
C         94.83826      102.79111       -6.00165
O         93.80790      103.56086       -6.39700
O         95.97323      103.09926       -6.33222
H         94.91812       99.64351       -3.20163
H         96.36512      100.52253       -5.72629
H         94.01238      101.85405       -4.25507
H         93.90069      100.89586       -5.77564
N         97.92634      102.04173       -4.32382
C         98.79590      102.92539       -3.55880
C        100.13203      102.25258       -3.37097
O        100.76676      101.91112       -4.36156
C         98.95320      104.25215       -4.30430
H         98.23984      101.76072       -5.26645
H         98.35440      103.15893       -2.56502
H         99.39244      104.09262       -5.31243
H         97.95699      104.72994       -4.42564
H         99.60594      104.94266       -3.72897
N        100.60933      101.98573       -2.12242
C        101.83089      101.21557       -1.92131
C        103.05541      101.92011       -2.47036
O        103.01419      103.10320       -2.77983
C        102.04166      100.86560       -0.43159
C        100.94231      100.00426        0.13607
O        100.99931       99.62354        1.42590
O        100.00806       99.63250       -0.55699
H        100.05234      102.27327       -1.30255
H        101.71671      100.26316       -2.48741
H        102.11388      101.80394        0.16078
H        102.99144      100.30207       -0.31000
N        104.17759      101.18290       -2.67950
C        105.40293      101.69152       -3.26193
C        105.60022      101.09609       -4.63638
O        105.79932      101.84671       -5.58109
H        104.14417      100.17828       -2.45119
H        106.24770      101.40602       -2.59879
H        105.39777      102.80099       -3.34113
N        105.53600       99.74708       -4.82470
C        105.75417       99.09241       -6.10749
C        104.49760       98.39387       -6.58406
O        103.91652       97.60698       -5.84886
C        106.88152       98.06000       -5.96874
C        108.18984       98.73154       -5.64743
N        108.83230       98.47628       -4.48569
O        108.67530       99.51708       -6.44829
H        105.33100       99.13978       -4.01757
H        106.06141       99.82446       -6.88722
H        107.00376       97.50275       -6.92374
H        106.60794       97.32574       -5.17851
H        108.43528       97.82418       -3.79409
H        109.72722       98.94092       -4.27377
N        104.06804       98.60142       -7.86034
C        102.94464       97.92276       -8.48163
C        103.13123       96.42075       -8.58325
O        104.03260       95.85540       -7.97958
H        104.58690       99.26559       -8.45530
H        102.85946       98.31296       -9.52029
H        101.99523       98.15458       -7.95317
N        102.30615       95.71482       -9.40061
C        102.38505       94.26862       -9.57389
C        101.79795       93.55125       -8.36745
O        102.45165       92.66636       -7.83360
C        101.74878       93.80301      -10.91944
C        100.27174       94.15878      -11.14867
O        102.51572       94.26912      -12.00335
H        101.62252       96.24939       -9.95413
H        103.45276       93.96344       -9.67758
H        101.82176       92.69279      -10.93755
H        102.49483       95.26102      -11.99178
H        100.11586       95.25407      -11.20721
H         99.94096       93.72305      -12.11536
H         99.62483       93.74644      -10.35678
N        100.57700       93.90303       -7.86996
C         99.92369       93.23526       -6.74678
C         99.89749       94.17419       -5.55351
O         99.44039       95.30260       -5.66446
C         98.51362       92.73978       -7.17015
C         98.68598       91.59548       -8.20627
C         97.70155       92.25766       -5.94899
C         97.37723       91.06930       -8.78967
H        100.08522       94.70340       -8.29532
H        100.49716       92.33278       -6.43977
H         97.95833       93.58945       -7.62705
H         99.23191       90.74654       -7.73770
H         99.29976       91.95330       -9.05542
H         98.21236       91.41218       -5.44201
H         97.56371       93.08214       -5.21787
H         96.68021       91.94779       -6.24512
H         97.60692       90.28578       -9.54255
H         96.74426       90.60277       -8.00897
H         96.82045       91.89110       -9.28570
N        100.41868       93.73652       -4.37156
C        100.58986       94.55384       -3.17331
C        101.44624       93.75900       -2.18502
O        101.08096       93.60246       -1.02995
C         99.20797       94.93719       -2.57611
C         99.27193       95.90989       -1.42669
O         98.13116       96.28034       -0.81687
O        100.33274       96.38472       -1.05167
H        100.76701       92.76581       -4.34882
H        101.15880       95.46323       -3.46632
H         98.69628       94.00782       -2.23872
H         98.57013       95.40812       -3.34997
N        102.57135       93.13560       -2.64074
C        103.36583       92.18817       -1.86516
C        102.47755       91.10313       -1.25797
O        101.68570       90.52304       -1.98689
C        104.43826       91.55132       -2.79182
C        105.28433       90.50997       -2.09206
C        106.60036       90.80844       -1.70574
C        104.76568       89.22864       -1.81611
C        107.37020       89.85489       -1.03179
C        105.53848       88.27919       -1.14653
C        106.83846       88.59357       -0.74895
H        102.83085       93.27920       -3.62977
H        103.90212       92.73923       -1.06867
H        105.08486       92.38230       -3.15083
H        103.97780       91.08617       -3.69247
H        107.02400       91.78361       -1.90917
H        103.76380       88.95654       -2.11921
H        108.37858       90.09600       -0.72415
H        105.12626       87.30068       -0.93474
H        107.43388       87.85823       -0.22449
N        102.60487       90.71609        0.05387
C        101.89371       89.58172        0.62725
C        100.47853       89.92197        1.07756
O         99.79527       89.02086        1.54732
C        102.79594       89.17814        1.79897
C        103.29018       90.52449        2.28948
C        103.59710       91.23660        0.97670
H        101.84603       88.72987       -0.08663
H        102.32471       88.52526        2.56414
H        103.68274       88.64310        1.38548
H        102.43240       91.03768        2.77845
H        104.14370       90.49543        3.00031
H        103.53591       92.33599        1.12401
H        104.60530       90.95318        0.60283
N         99.96133       91.17980        0.97500
C         98.59643       91.51702        1.37486
C         97.53727       90.88953        0.47003
O         96.36427       91.06384        0.77114
C         98.39701       93.05048        1.39532
C         99.25155       93.71915        2.48294
C         99.00827       95.19711        2.52208
O         99.93212       95.97625        2.35065
O         97.77074       95.67021        2.76754
H        100.56872       91.93367        0.63454
H         98.42400       91.14361        2.40944
H         97.33230       93.27759        1.62491
H         98.63274       93.47592        0.39444
H        100.33047       93.52562        2.30444
H         98.97793       93.29922        3.47494
N         97.84927       90.15671       -0.64024
C         96.84662       89.55717       -1.50004
H         95.80992       89.77990       -1.16994
H         96.97125       89.94207       -2.53347
H         96.97876       88.45504       -1.50634
H         98.82950       90.00490       -0.91018
Ca        98.19819       97.83003        0.82503
O         96.95846       98.81742       -1.62109
H         96.92392       99.74313       -1.27424
H         97.76790       98.79409       -2.19080
O         97.79501      100.79824        1.51871
H         98.42901      101.38017        1.02949
H         96.94868      100.87273        1.01078
O         95.32736       97.94953        1.47731
H         94.56480       97.48112        1.05443
H         95.17797       98.90651        1.27197
O         98.49676       98.50908        3.81545
H         97.57913       98.70511        4.13151
H         99.01891       99.31820        4.04481

Ca 1.0



