%chk=apoCaM-CA-Ng.loop3.water3.frame922.chk
%nprocshared=20
%mem=10GB
%nosave
#b3lyp/svp scf=(tight,noincore,xqc) Test 
#IOP(5/87=12) Density=Current Pop=(MK,readradii) iop(6/33=2) iop(6/42=6)

apoCaM-CA-Ng.loop3.water3.frame922 

   0  1 
C        -18.62310        9.62505       19.59767
C        -19.97608        9.09719       19.97364
O        -20.38906        8.09880       19.40430
H        -17.86281        8.83519       19.78386
H        -18.60582        9.89782       18.52312
H        -18.35112       10.51463       20.20331
N        -20.71730        9.70968       20.94060
C        -21.96988        9.17677       21.46271
C        -23.11774       10.13151       21.16944
O        -22.99952       11.31293       21.46576
C        -21.79028        8.93051       22.97333
C        -22.90343        8.13985       23.59345
O        -22.82872        7.80372       24.89447
O        -23.85727        7.76729       22.93128
H        -20.35092       10.57298       21.37103
H        -22.18886        8.19442       21.00128
H        -21.67044        9.89733       23.50800
H        -20.86798        8.33388       23.12770
N        -24.26476        9.68138       20.57695
C        -25.35694       10.56332       20.16730
C        -26.38208       10.80053       21.26913
O        -27.22466       11.66739       21.09080
C        -26.04529       10.00156       18.90698
C        -25.07011        9.91674       17.71852
C        -25.67376        9.24052       16.47795
C        -26.89866        9.97492       15.91157
N        -27.36900        9.32932       14.68655
H        -24.35291        8.67417       20.37517
H        -24.93315       11.56116       19.91478
H        -26.89056       10.66606       18.63121
H        -26.44920        8.99012       19.13621
H        -24.18188        9.31762       18.00875
H        -24.72103       10.93952       17.45692
H        -25.95203        8.19302       16.72752
H        -24.88340        9.21097       15.69616
H        -26.62954       11.03090       15.68833
H        -27.72373        9.96842       16.65566
H        -28.21081        9.83853       14.33274
H        -26.62231        9.36142       13.95480
H        -27.63078        8.33520       14.88013
N        -26.37164       10.08801       22.43040
C        -27.25284       10.36333       23.56059
C        -26.40882       10.76829       24.76820
O        -26.68838       11.81686       25.33675
C        -28.27832        9.22141       23.77387
C        -27.74792        7.82549       23.92928
O        -28.03876        6.96896       23.11050
O        -27.04147        7.47674       25.00870
H        -25.69984        9.32180       22.53059
H        -27.90574       11.23977       23.34614
H        -28.93419        9.21754       22.87417
H        -28.92392        9.46129       24.64689
N        -25.30364       10.06118       25.15129
C        -24.38712       10.48508       26.20934
C        -24.23326        9.46472       27.32720
O        -23.59553        9.78153       28.31743
H        -25.06587        9.21230       24.62956
H        -24.74616       11.42994       26.67317
H        -23.38757       10.69134       25.77011
N        -24.84196        8.24674       27.25889
C        -24.97752        7.31998       28.36837
C        -24.60505        5.88945       27.98016
O        -25.14004        5.36693       27.01398
C        -26.46756        7.35377       28.76212
C        -26.81170        6.35393       29.83294
N        -27.70128        5.36559       29.57755
O        -26.28013        6.42850       30.92999
H        -25.35210        8.00044       26.41687
H        -24.38690        7.64718       29.25195
H        -27.08177        7.14488       27.85806
H        -26.73145        8.37556       29.11340
H        -28.15211        5.28623       28.65339
H        -27.93688        4.67162       30.30062
N        -23.80341        5.15429       28.80535
C        -23.63973        3.71018       28.69254
C        -22.89563        3.27944       27.45883
O        -21.75424        3.68971       27.30001
H        -23.38802        5.61158       29.63013
H        -24.64038        3.22950       28.74128
H        -23.05643        3.35130       29.56825
N        -23.45309        2.39395       26.57200
C        -22.74345        1.90807       25.38597
C        -22.60539        3.02384       24.31718
O        -22.44328        4.27273       24.89849
C        -23.49490        0.71319       24.73913
C        -23.61964       -0.50695       25.61929
C        -24.88411       -1.05312       25.89990
C        -22.47228       -1.14537       26.12127
C        -24.99690       -2.21977       26.66287
C        -22.58820       -2.30674       26.89068
C        -23.84769       -2.85146       27.15961
O        -23.94024       -3.98341       27.88643
H        -24.38978        2.01508       26.78078
H        -21.73132        1.57405       25.70261
H        -22.95706        0.36230       23.83815
H        -24.49988        1.05883       24.40772
H        -25.78304       -0.58960       25.51273
H        -21.48617       -0.75308       25.90954
H        -25.97682       -2.63673       26.85899
H        -21.69604       -2.79054       27.26801
H        -24.79058       -4.40341       28.07954
N        -21.54063        2.73523       23.33771
C        -21.31552        3.69168       22.22495
C        -22.61901        3.96259       21.38752
O        -23.17482        5.22676       21.65182
C        -20.53870        4.96977       22.68346
C        -20.08022        5.85712       21.49897
C        -19.33797        4.61440       23.58213
C        -19.08067        5.21527       20.53126
H        -21.72875        1.80844       22.89819
H        -20.61317        3.14353       21.56067
H        -21.21493        5.59760       23.29903
H        -19.60681        6.77539       21.90748
H        -20.96785        6.16762       20.91953
H        -18.81776        5.54027       23.90979
H        -19.67481        4.08599       24.49843
H        -18.61498        3.95897       23.05550
H        -18.14278        4.93507       21.05123
H        -19.51225        4.32580       20.03209
H        -18.81785        5.94790       19.74034
N        -22.39100        3.80414       19.93574
C        -23.58011        4.18219       19.13055
C        -23.93174        3.13787       18.08001
O        -23.13339        2.87782       17.19008
C        -23.33443        5.51938       18.41069
O        -23.10858        6.54288       19.33200
H        -22.15640        2.79544       19.78429
H        -24.47159        4.30846       19.78536
H        -24.23672        5.77279       17.80774
H        -22.44990        5.42448       17.74132
H        -22.97901        7.36800       18.79736
N        -25.15551        2.53864       18.11595
C        -25.66992        1.62960       17.09938
C        -26.96231        2.24073       16.55472
O        -27.83321        2.53156       17.36342
C        -25.92746        0.26120       17.72856
H        -25.78732        2.76729       18.89906
H        -24.91985        1.46712       16.30245
H        -26.31126       -0.44396       16.96142
H        -24.97416       -0.14625       18.13100
H        -26.66019        0.33468       18.55957
N        -27.18758        2.52998       15.23648
C        -26.33026        2.11837       14.13130
C        -26.55727        0.63338       13.85707
O        -27.53996        0.09740       14.35279
C        -26.66850        2.94885       12.88318
H        -28.06616        3.02181       15.00568
H        -25.27599        2.34135       14.38990
H        -26.03550        2.68089       12.01488
H        -27.73144        2.80901       12.59339
H        -26.50121        4.02533       13.10554
N        -25.70945       -0.14635       13.12853
C        -24.44241        0.27899       12.55798
C        -23.33940       -0.26779       13.43608
O        -22.57289        0.51959       13.97478
C        -24.35168       -0.19305       11.09099
C        -23.04170        0.23432       10.41242
C        -23.00943       -0.20512        8.97573
O        -23.84578        0.20565        8.18661
O        -22.04764       -1.04506        8.54748
H        -25.94415       -1.14962       13.05347
H        -24.34480        1.38108       12.56338
H        -25.20677        0.24821       10.53189
H        -24.44307       -1.30094       11.04120
H        -22.18089       -0.22028       10.94861
H        -22.93971        1.34004       10.44979
N        -23.22636       -1.60263       13.67464
C        -22.23488       -2.12946       14.58529
H        -21.21545       -1.87099       14.23078
H        -22.39467       -1.70121       15.59917
H        -22.32901       -3.23358       14.65142
H        -23.87680       -2.26348       13.22444
Ca       -24.06887        5.15928       23.70150
O        -26.07035        3.33338       21.90945
H        -25.72735        2.52053       21.46015
H        -27.01075        3.40669       21.60815
O        -26.38545        6.51894       20.88615
H        -25.40533        6.39249       20.86757
H        -26.69429        6.21396       19.99693
O        -27.16398        4.12972       24.87506
H        -27.75422        3.58291       24.29798
H        -27.08795        3.61032       25.71464

Ca 1.0



