%chk=apoCaM-CA-Ng.loop4.water3.frame236.chk
%nprocshared=20
%mem=10GB
%nosave
#b3lyp/svp scf=(tight,noincore,xqc) Test 
#IOP(5/87=12) Density=Current Pop=(MK,readradii) iop(6/33=2) iop(6/42=6)

apoCaM-CA-Ng.loop4.water3.frame236 

   -3  1 
C         16.47086       30.82294       75.60039
C         15.63200       31.92951       75.03633
O         15.24289       32.79922       75.79988
H         17.37918       31.25787       76.07020
H         15.89252       30.27558       76.37381
H         16.78656       30.10822       74.81302
N         15.34387       31.98294       73.70044
C         14.57646       33.05065       73.06257
C         15.25935       34.38731       73.29340
O         14.70539       35.24896       73.94951
C         13.05740       32.96770       73.38666
C         12.63840       33.05157       74.83034
O         12.84567       34.16951       75.54851
O         12.06373       32.10786       75.34981
H         15.72737       31.24874       73.08625
H         14.60633       32.89061       71.96075
H         12.70183       31.99022       72.98939
H         12.52527       33.76353       72.82159
N         16.51009       34.57848       72.77393
C         17.38671       35.74540       72.92087
C         16.87851       36.98711       72.18324
O         17.53102       37.37936       71.22486
C         17.77858       36.00349       74.40042
C         18.83043       37.13804       74.55889
C         18.29517       34.70856       75.05399
C         20.18149       36.87864       73.87936
H         16.91107       33.79081       72.24043
H         18.32867       35.45796       72.40340
H         16.87246       36.31655       74.95665
H         19.02773       37.28844       75.64165
H         18.41448       38.08811       74.16224
H         19.16391       34.28951       74.50690
H         18.59578       34.90203       76.09711
H         17.50552       33.93581       75.07257
H         20.86064       37.73383       74.07560
H         20.66470       35.96528       74.28142
H         20.07432       36.78279       72.78109
N         15.74436       37.65923       72.53911
C         15.23693       38.79275       71.77586
C         16.04197       40.06729       72.03503
O         16.58158       40.58028       71.06457
C         13.71207       38.96937       71.96204
C         12.95892       37.76263       71.45972
O         12.15491       37.07002       72.28647
O         13.06041       37.41442       70.29370
H         15.18909       37.34452       73.33766
H         15.34028       38.55507       70.69060
H         13.37218       39.84735       71.37093
H         13.44015       39.13426       73.01809
N         16.20888       40.67180       73.25419
C         15.67947       40.17752       74.52056
C         16.05812       41.04618       75.72534
O         16.73330       42.04814       75.53607
H         16.77757       41.53188       73.25688
H         16.09214       39.16633       74.67690
H         14.58777       40.15649       74.45676
N         15.70414       40.75320       77.02194
C         14.90643       39.62030       77.49823
C         15.57215       38.33401       77.07620
O         15.00927       37.61750       76.26076
C         13.42007       39.79557       77.10237
C         12.37262       38.97501       77.84515
O         11.23123       39.40778       77.84360
O         12.58937       37.80753       78.50108
H         16.05340       41.39205       77.75441
H         14.87759       39.65527       78.60864
H         13.22411       39.73625       76.01925
H         13.19661       40.84462       77.40209
N         16.80606       37.97135       77.53839
C         17.56605       38.68403       78.55811
C         18.61623       39.58976       77.96444
O         18.69821       39.71594       76.75076
H         17.22037       37.09706       77.18432
H         18.08006       37.92421       79.18700
H         16.91663       39.25804       79.24549
N         19.49898       40.22127       78.79135
C         20.62858       41.00727       78.30521
C         21.92665       40.21966       78.43926
O         22.94107       40.69796       77.95009
C         20.71675       42.36227       79.03345
C         19.50267       43.26373       78.74782
C         19.59760       44.60918       79.43359
N         18.62718       45.53237       79.24290
O         20.54644       44.87697       80.15756
H         19.42423       40.05573       79.80772
H         20.51987       41.20204       77.21485
H         21.62554       42.89929       78.68097
H         20.81450       42.18649       80.12777
H         18.57013       42.76097       79.08221
H         19.43980       43.43816       77.65147
H         17.82252       45.33123       78.63153
H         18.68333       46.45388       79.70231
N         21.95947       38.97544       79.00660
C         23.11477       38.08808       78.94334
C         23.64214       37.67135       80.31162
O         24.59319       36.90128       80.32099
C         22.76414       36.83991       78.07378
C         22.54900       37.24300       76.60847
C         21.53527       36.06228       78.58354
H         21.11070       38.59091       79.43873
H         23.97325       38.59258       78.44620
H         23.63679       36.15025       78.08675
H         22.36664       36.33952       75.98981
H         21.68413       37.93191       76.50396
H         23.45746       37.74618       76.21300
H         21.67296       35.75547       79.64091
H         20.60614       36.66501       78.49914
H         21.38450       35.14822       77.97109
N         23.14586       38.15022       81.49518
C         23.73449       37.77507       82.78618
C         22.74890       37.14478       83.75968
O         23.21506       36.61059       84.75763
C         24.35512       39.01706       83.45954
C         25.42970       39.65670       82.61768
N         26.56068       38.98143       82.30669
O         25.28359       40.80472       82.22543
H         22.38299       38.84182       81.48208
H         24.53540       37.01975       82.63712
H         24.80542       38.73959       84.43786
H         23.54646       39.75759       83.65327
H         26.70974       38.01799       82.63946
H         27.29604       39.42743       81.73855
N         21.39569       37.24324       83.61488
C         20.46144       36.79281       84.64359
C         19.32539       35.98957       84.05243
O         18.71246       36.45288       83.10252
C         19.88732       38.01960       85.38172
C         20.95949       38.74667       86.16294
C         21.64492       38.08902       87.20204
C         21.28156       40.08222       85.87232
C         22.63850       38.74962       87.92661
C         22.27585       40.74335       86.60261
C         22.95815       40.08051       87.62911
O         23.91449       40.73020       88.32281
H         21.00558       37.76371       82.81699
H         20.96560       36.16393       85.40644
H         19.11310       37.69035       86.10915
H         19.39730       38.69598       84.64634
H         21.41272       37.06248       87.45528
H         20.76637       40.61224       85.08143
H         23.15723       38.22519       88.71964
H         22.51663       41.77280       86.37040
H         24.40731       40.30536       89.03978
N         18.91951       34.83430       84.66873
C         17.73661       34.03961       84.33287
C         17.97500       33.05985       83.20198
O         17.71415       31.87984       83.39818
C         16.46164       34.88003       84.07758
C         16.11724       35.79892       85.25879
C         14.83588       36.54003       85.00571
O         13.78658       36.37430       85.83350
O         14.74051       37.30108       84.05570
H         19.41478       34.55536       85.52947
H         17.50157       33.41312       85.22502
H         15.61236       34.17693       83.92343
H         16.55313       35.47570       83.14638
H         16.92736       36.53954       85.42254
H         16.00787       35.18654       86.17992
N         18.41883       33.46265       81.97969
C         18.47115       32.55914       80.83339
C         19.43596       31.39301       81.02162
O         19.40791       30.48543       80.20067
C         18.86491       33.29401       79.52999
C         18.14586       34.62170       79.24119
C         16.64909       34.57087       79.22330
O         16.00054       34.93049       78.10495
O         16.02026       34.35773       80.24738
H         18.65308       34.44857       81.85291
H         17.44327       32.15103       80.70705
H         18.70301       32.60059       78.67452
H         19.94983       33.53755       79.56934
H         18.51013       34.98706       78.26530
H         18.44202       35.40094       79.96975
N         20.34082       31.35278       82.04142
C         21.26597       30.25167       82.19794
H         21.92441       30.43141       83.07416
H         20.70653       29.30596       82.35914
H         21.90110       30.15779       81.29108
H         20.40337       32.12588       82.71838
Ca        14.11632       36.15185       78.26409
O         11.98299       37.14029       75.45357
H         11.63016       37.92178       74.95925
H         12.45857       36.60764       74.77044
O         10.88482       35.29981       77.82655
H         10.46873       36.13504       78.15741
H         10.46157       35.14568       76.94492
O         12.92072       32.79280       78.36075
H         13.50954       33.31429       78.96171
H         13.50541       32.08191       77.99582

Ca 1.0



