%chk=apoCaM-CA-Ng.loop3.water5.frame326.chk
%nprocshared=20
%mem=10GB
%nosave
#b3lyp/svp scf=(tight,noincore,xqc) Test 
#IOP(5/87=12) Density=Current Pop=(MK,readradii) iop(6/33=2) iop(6/42=6)

apoCaM-CA-Ng.loop3.water5.frame326 

   0  1 
C         63.65973       34.62473       59.54523
C         64.11153       34.02521       58.24727
O         63.27986       33.51460       57.51482
H         62.56126       34.50897       59.67188
H         64.16779       34.10924       60.38768
H         63.91204       35.70465       59.56822
N         65.43590       34.04947       57.90748
C         66.02506       33.48202       56.68921
C         66.05054       31.94316       56.67538
O         66.61554       31.37667       55.75070
C         65.34590       34.09206       55.43664
C         66.06794       33.77170       54.15948
O         67.34472       34.16443       53.98991
O         65.49430       33.17701       53.26080
H         66.08202       34.52818       58.55389
H         67.09270       33.79617       56.68320
H         65.33143       35.19862       55.53949
H         64.29603       33.74011       55.35482
N         65.46601       31.20596       57.66224
C         65.40357       29.74406       57.70638
C         63.98602       29.25488       57.39019
O         63.75932       28.05329       57.37230
C         65.89216       29.23352       59.09447
C         65.14371       29.87684       60.28546
C         65.58211       29.32496       61.64771
C         64.98052       30.12954       62.82086
N         63.51767       30.07091       62.86538
H         64.96320       31.70309       58.39891
H         66.05690       29.29863       56.92407
H         66.97440       29.46548       59.20287
H         65.77883       28.12769       59.13135
H         64.05269       29.72401       60.15596
H         65.36821       30.96180       60.31045
H         66.68795       29.40950       61.72842
H         65.30544       28.25200       61.73167
H         65.30411       31.19261       62.74666
H         65.38555       29.72175       63.77288
H         63.18424       30.60703       63.69922
H         63.09816       30.51226       62.01674
H         63.19916       29.07910       62.95139
N         62.98926       30.14138       57.11094
C         61.61067       29.80009       56.78467
C         61.56712       29.10733       55.43153
O         62.12137       29.64551       54.48194
C         60.80968       31.11866       56.76886
C         59.29430       30.99953       56.79857
O         58.79427       30.38733       57.94488
O         58.73789       30.36383       55.70230
H         63.21149       31.13952       57.13490
H         61.19481       29.16439       57.59633
H         61.12988       31.74922       55.90927
H         61.05441       31.68619       57.69379
N         60.96154       27.89677       55.26947
C         61.03657       27.14540       54.02261
C         60.41469       27.80941       52.80339
O         60.65402       27.30163       51.71725
H         60.49752       27.45623       56.07747
H         60.56612       26.14611       54.15054
H         62.11393       26.97968       53.80450
N         59.59977       28.90425       52.88000
C         59.04466       29.56950       51.70116
C         59.38442       31.06118       51.62731
O         59.04093       31.65069       50.61127
C         57.52741       29.28391       51.56569
C         56.61624       29.82175       52.64065
N         55.29164       29.54838       52.58159
O         57.05156       30.49972       53.55664
H         59.33693       29.25151       53.80084
H         59.49478       29.12431       50.78742
H         57.39640       28.17991       51.53330
H         57.17129       29.69146       50.59402
H         54.90474       28.97894       51.81383
H         54.64898       29.89888       53.30458
N         60.07365       31.73677       52.60606
C         60.48501       33.13690       52.46724
C         59.89171       34.09077       53.49879
O         60.08419       35.28705       53.34338
H         60.36204       31.24379       53.46063
H         60.19106       33.52615       51.47054
H         61.59286       33.19781       52.51756
N         59.16187       33.65276       54.56210
C         58.45693       34.52249       55.50564
C         57.01081       34.07789       55.51197
O         56.75394       32.89437       55.68930
C         59.04844       34.41559       56.92409
C         58.25224       35.22022       57.92885
C         58.21335       36.62322       57.87000
C         57.52251       34.55698       58.93119
C         57.45613       37.34687       58.79889
C         56.76007       35.27989       59.85009
C         56.72463       36.67902       59.78788
O         55.99233       37.38867       60.66992
H         59.06355       32.64205       54.69731
H         58.53046       35.59037       55.20387
H         60.11059       34.74254       56.93288
H         59.02480       33.36714       57.23523
H         58.76995       37.15616       57.10969
H         57.53187       33.47660       58.99385
H         57.43492       38.42814       58.74844
H         56.19609       34.75000       60.60754
H         55.46944       36.96196       61.36411
N         56.00516       34.96922       55.31658
C         54.63039       34.52942       55.12552
C         54.58174       33.80757       53.79006
O         54.09847       32.68592       53.73464
C         53.63321       35.71727       55.22863
C         53.73934       36.44806       56.60263
C         52.18598       35.24377       54.99269
C         53.47653       35.57711       57.84138
H         56.23360       35.97108       55.23364
H         54.34153       33.81669       55.92791
H         53.87223       36.46198       54.43779
H         53.01545       37.29148       56.61321
H         54.75120       36.88963       56.71530
H         51.89100       34.45548       55.71699
H         51.47975       36.09605       55.08260
H         52.07669       34.83056       53.97257
H         54.22494       34.76365       57.93165
H         53.56292       36.20256       58.75470
H         52.45712       35.14120       57.82404
N         55.18625       34.35235       52.69282
C         55.31596       33.62562       51.43503
C         53.98452       33.46785       50.73494
O         53.85750       32.57709       49.90710
C         56.30669       34.33168       50.49048
O         57.54086       34.55863       51.11716
H         55.64586       35.27132       52.78733
H         55.73163       32.61851       51.67086
H         55.88908       35.31854       50.19790
H         56.46438       33.73422       49.56533
H         57.82578       33.69876       51.51689
N         52.95147       34.31685       51.00880
C         51.62634       34.23143       50.41597
C         50.99195       32.88787       50.74289
O         50.49313       32.21234       49.85304
C         51.68278       34.53990       48.90927
H         53.09409       35.07432       51.69246
H         51.00205       35.02139       50.88950
H         52.14666       35.53702       48.74567
H         52.28231       33.78478       48.35940
H         50.65953       34.55821       48.47979
N         51.03736       32.42051       52.02408
C         50.52766       31.12133       52.44265
C         49.68593       31.26437       53.69171
O         50.16593       31.82576       54.66812
C         51.69729       30.19131       52.74974
H         51.53005       32.98577       52.73016
H         49.94102       30.64005       51.62946
H         52.31958       30.05675       51.84023
H         52.32657       30.60435       53.56417
H         51.31001       29.19715       53.06234
N         48.42368       30.75212       53.74040
C         47.55465       30.83236       54.90970
C         47.32216       32.28676       55.26899
O         47.56720       32.69325       56.39782
C         48.11068       30.00448       56.10250
C         48.30108       28.51265       55.78261
C         47.00790       27.84461       55.40834
O         45.97890       27.82615       56.27748
O         46.88563       27.31196       54.31705
H         48.04581       30.28567       52.90194
H         46.56607       30.40283       54.63636
H         47.41091       30.09086       56.96329
H         49.08976       30.41308       56.43145
H         48.70664       28.00189       56.68307
H         49.04347       28.39904       54.96292
N         46.86363       33.14321       54.31804
C         46.65484       34.54743       54.58517
H         45.88345       34.67127       55.37377
H         47.60727       35.01382       54.91728
H         46.31267       35.05868       53.66090
H         46.67639       32.79104       53.36670
Ca        56.91073       29.70095       56.86549
O         54.59216       27.92906       56.87264
H         54.02371       28.06011       56.07273
H         54.02606       28.21646       57.63242
O         53.97184       31.03253       56.24756
H         54.58230       30.78552       55.50902
H         53.08380       30.70465       55.95923
O         57.81919       27.43071       55.50706
H         58.01497       26.68877       56.13226
H         57.47112       26.99451       54.69056
O         55.56506       31.65086       58.75390
H         54.79094       32.24582       58.59067
H         55.49126       31.40087       59.70877
O         57.27160       28.49198       59.55422
H         56.30234       28.62525       59.70548
H         57.31968       27.85744       58.79517

Ca 1.0



