%chk=apoCaM-CA-Ng.loop4.water5.frame1024.chk
%nprocshared=20
%mem=10GB
%nosave
#b3lyp/svp scf=(tight,noincore,xqc) Test 
#IOP(5/87=12) Density=Current Pop=(MK,readradii) iop(6/33=2) iop(6/42=6)

apoCaM-CA-Ng.loop4.water5.frame1024 

   -3  1 
C         27.54807       60.51325       33.53041
C         27.60356       59.03256       33.27525
O         28.09092       58.31216       34.13358
H         26.49077       60.85344       33.51855
H         27.97928       60.75421       34.52526
H         28.12715       61.05866       32.75737
N         27.09830       58.46606       32.14318
C         26.42783       59.21070       31.08292
C         24.93930       59.18249       31.36550
O         24.35254       60.23696       31.56540
C         26.77803       58.61272       29.70839
C         28.26078       58.60461       29.46370
O         28.90256       57.43313       29.29017
O         28.88923       59.65028       29.42352
H         27.11069       57.43506       32.07751
H         26.75834       60.27148       31.07460
H         26.27647       59.18936       28.90103
H         26.42156       57.56737       29.66398
N         24.28273       57.99439       31.47749
C         22.94400       57.87449       32.04511
C         21.84153       57.89920       31.00088
O         20.79973       58.48022       31.27199
C         22.81221       56.61460       32.96629
C         22.97987       55.26440       32.21303
C         23.80295       56.71384       34.14286
C         22.54336       54.04935       33.02923
H         24.83260       57.13693       31.34586
H         22.75579       58.73544       32.72798
H         21.78083       56.64403       33.38486
H         24.02878       55.12138       31.88583
H         22.33471       55.24900       31.32114
H         23.65201       55.89071       34.86870
H         24.85318       56.67593       33.78141
H         23.65331       57.66661       34.69284
H         21.47437       54.15303       33.31582
H         22.64837       53.13542       32.40601
H         23.16015       53.91638       33.93868
N         21.95782       57.20293       29.83710
C         20.84437       56.95359       28.92694
C         21.09848       57.57970       27.56159
O         22.14596       58.17549       27.34988
C         20.66893       55.41451       28.86301
C         19.46405       54.93309       28.11257
O         19.59550       54.20212       27.14375
O         18.22974       55.28314       28.52202
H         22.85906       56.75861       29.62502
H         19.90997       57.40223       29.32908
H         20.55906       55.02576       29.89695
H         21.58633       54.97034       28.42273
N         20.14529       57.50429       26.58900
C         20.26891       58.07730       25.26041
C         21.39342       57.48287       24.44111
O         22.18036       56.69078       24.94037
H         19.25094       57.04279       26.79787
H         20.40237       59.17823       25.33184
H         19.31858       57.88174       24.71627
N         21.49074       57.82246       23.12632
C         22.54080       57.35463       22.23120
C         21.93425       56.38770       21.22664
O         21.00515       56.78480       20.53643
C         23.15430       58.58015       21.51925
C         24.28324       58.22333       20.59007
O         25.51146       58.73260       20.80032
O         24.08983       57.50065       19.62521
H         20.76068       58.43596       22.72948
H         23.34676       56.85909       22.80855
H         23.53590       59.28422       22.29041
H         22.36877       59.11132       20.93573
N         22.37147       55.10342       21.05715
C         23.46362       54.48631       21.80833
C         23.62095       53.01545       21.43769
O         22.58952       52.39538       21.21714
H         21.87623       54.53941       20.34854
H         23.21085       54.52582       22.88836
H         24.38334       55.06267       21.63960
N         24.79811       52.30918       21.38254
C         26.17381       52.70567       21.69083
C         26.34354       53.06867       23.15387
O         25.69660       53.99138       23.62760
C         26.74697       53.78011       20.73262
C         28.28957       53.89872       20.81067
C         29.04535       52.70277       20.25934
N         30.39833       52.69509       20.27393
O         28.45017       51.74904       19.77872
H         24.70206       51.31615       21.11263
H         26.78368       51.79610       21.51508
H         26.33222       54.77368       20.97069
H         26.47663       53.53714       19.68281
H         28.59740       54.08250       21.86307
H         28.60142       54.77740       20.20647
H         30.92627       53.48905       20.66358
H         30.92047       51.89229       19.89077
N         27.25071       52.40263       23.92705
C         27.47826       52.76161       25.32009
C         26.33452       52.30568       26.20721
O         25.69046       51.30463       25.92613
C         28.83540       52.23692       25.88194
C         30.01971       52.81299       25.09398
C         28.92760       50.70314       25.94190
H         27.84081       51.68156       23.48854
H         27.54921       53.87260       25.37272
H         28.93995       52.61164       26.92255
H         29.98670       53.92334       25.11565
H         30.97729       52.49024       25.55585
H         30.00614       52.47453       24.03763
H         28.11736       50.28770       26.57560
H         28.86539       50.24772       24.93325
H         29.89442       50.40247       26.39967
N         26.11296       52.97453       27.36494
C         25.19191       52.56207       28.41920
C         25.95509       52.28064       29.71996
O         25.32199       51.96460       30.71726
C         24.12458       53.65624       28.59212
C         24.74033       55.01846       28.78616
N         24.54242       55.99538       27.86855
O         25.44438       55.23171       29.75995
H         26.67362       53.82583       27.53062
H         24.66471       51.62025       28.15113
H         23.44631       53.41551       29.44011
H         23.50986       53.66717       27.66641
H         23.96164       55.82827       27.03429
H         24.96911       56.92475       27.98486
N         27.31930       52.36331       29.76684
C         28.15977       52.08413       30.93328
C         29.60909       52.51535       30.66066
O         29.90159       53.00115       29.57616
C         28.02297       50.59432       31.34024
C         28.31291       49.63449       30.20708
C         29.62506       49.42045       29.75561
C         27.25715       48.93534       29.59342
C         29.87624       48.52548       28.71042
C         27.50864       48.05126       28.54156
C         28.82096       47.84211       28.09682
O         29.07849       46.99119       27.08318
H         27.80099       52.62870       28.90781
H         27.81641       52.71524       31.78271
H         26.97539       50.44204       31.67209
H         28.64823       50.34385       32.22304
H         30.45529       49.93323       30.21857
H         26.23476       49.08324       29.91902
H         30.89299       48.36457       28.37564
H         26.68250       47.53065       28.07314
H         28.37545       46.50583       26.62811
N         30.57155       52.41454       31.61884
C         31.92173       52.94291       31.42806
C         32.17061       53.97142       32.51615
O         33.08047       53.81059       33.31758
C         32.92433       51.76546       31.41435
C         34.39314       52.12398       31.10378
C         34.60246       52.69340       29.72354
O         35.27219       52.08064       28.90725
O         34.10267       53.89833       29.39132
H         30.33724       51.98258       32.52576
H         31.99874       53.46126       30.45388
H         32.59556       51.03409       30.64355
H         32.88262       51.25307       32.40066
H         34.97609       51.17977       31.18161
H         34.80760       52.82872       31.85177
N         31.31645       55.03051       32.64420
C         31.35940       55.94544       33.77567
C         30.22838       55.61940       34.74998
O         30.17041       56.25518       35.79386
C         31.25645       57.43229       33.34927
C         32.41073       58.01313       32.51463
C         32.37564       57.65084       31.05448
O         32.56106       56.38551       30.64200
O         32.21531       58.53024       30.22278
H         30.52963       55.11726       31.98063
H         32.30444       55.81327       34.34659
H         31.26166       58.01907       34.29559
H         30.29106       57.63513       32.83785
H         33.39110       57.75174       32.96566
H         32.30569       59.12097       32.56876
N         29.30877       54.63706       34.49950
C         28.24378       54.28591       35.41540
H         27.26502       54.43389       34.91303
H         28.34454       53.21572       35.69537
H         28.26112       54.89334       36.34353
H         29.34253       54.09238       33.62821
Ca        31.26371       57.73124       27.57427
O         31.63126       54.75510       27.33400
H         32.09136       53.89140       27.48083
H         31.04725       54.86545       28.12608
O         28.51205       58.08436       26.12079
H         28.99784       58.90669       25.85768
H         28.63173       57.46903       25.35369
O         34.22536       56.83124       27.30751
H         34.41602       56.77609       28.27787
H         34.15300       57.80242       27.12448
O         31.75444       60.48744       26.45410
H         32.63808       60.07471       26.27664
H         31.89861       61.04287       27.26164
O         31.44966       56.70819       24.71350
H         32.28993       56.18314       24.72165
H         31.74808       57.65215       24.66994

Ca 1.0



