%chk=apoCaM-CA-Ng.loop2.water6.frame506.chk
%nprocshared=20
%mem=10GB
%nosave
#b3lyp/svp scf=(tight,noincore,xqc) Test 
#IOP(5/87=12) Density=Current Pop=(MK,readradii) iop(6/33=2) iop(6/42=6)

apoCaM-CA-Ng.loop2.water6.frame506 

   -2  1 
C         53.05463       67.26301       35.32761
C         52.44199       68.59822       35.62275
O         52.73365       69.54687       34.90780
H         54.15971       67.33925       35.39476
H         52.70382       66.48854       36.04105
H         52.77261       66.95128       34.29968
N         51.57567       68.75544       36.66480
C         50.94189       70.03824       36.96190
C         50.02378       70.45508       35.82100
O         49.81758       69.67685       34.89857
C         50.13684       69.95846       38.27969
C         51.00638       69.57360       39.44573
O         50.74330       68.45039       40.14113
O         51.94887       70.27774       39.77165
H         51.37075       67.94091       37.26425
H         51.74051       70.80430       37.08216
H         49.32038       69.21103       38.16943
H         49.67535       70.94249       38.50983
N         49.43585       71.68434       35.82188
C         48.53394       72.13455       34.76634
C         49.07615       73.38779       34.09277
O         49.89245       74.06920       34.69820
C         47.16898       72.42400       35.40462
H         49.63017       72.32721       36.60575
H         48.41068       71.34223       34.00155
H         46.77898       71.50167       35.88485
H         47.26953       73.21028       36.18436
H         46.41914       72.77113       34.67009
N         48.65146       73.81992       32.86609
C         47.75424       73.07999       31.97551
C         48.44498       71.86845       31.34047
O         49.63748       71.67284       31.53110
C         47.14892       74.01292       30.89187
C         48.13604       74.56399       29.89181
O         49.12763       75.38899       30.27691
O         48.00979       74.29882       28.70712
H         48.99492       74.74210       32.56417
H         46.88669       72.72568       32.56147
H         46.63149       74.86109       31.39054
H         46.36925       73.44870       30.33597
N         47.72479       71.01696       30.55492
C         48.25979       69.85220       29.85678
C         47.51039       68.59531       30.26600
O         46.79319       68.64743       31.25583
H         46.72086       71.20855       30.41953
H         49.35175       69.71364       30.00910
H         48.08406       70.03746       28.78176
N         47.53838       67.42756       29.55209
C         48.25998       67.18607       28.30573
C         49.04893       65.88204       28.41806
O         48.80875       64.95221       27.65762
C         47.23402       67.10492       27.14676
C         46.54887       68.42196       26.88536
N         47.25282       69.48269       26.42439
O         45.34485       68.52582       27.06529
H         46.93368       66.65963       29.88617
H         48.98160       67.99941       28.08316
H         46.47550       66.32864       27.39650
H         47.73547       66.80477       26.20115
H         48.26508       69.40574       26.24631
H         46.78521       70.38138       26.23497
N         50.01750       65.74488       29.36298
C         50.81039       64.53418       29.52801
C         51.67899       64.25792       28.32145
O         51.61192       63.16990       27.76755
H         50.19689       66.53040       30.00636
H         50.14530       63.66767       29.74259
H         51.48561       64.66987       30.39895
N         52.51637       65.22588       27.85800
C         53.41287       65.06771       26.71422
C         54.83482       65.46401       27.09896
O         55.07758       65.80895       28.24610
C         52.88369       65.91578       25.52894
C         51.58771       65.31599       24.97420
O         52.64704       67.24344       25.92094
H         52.49316       66.14646       28.32329
H         53.45735       64.00776       26.37677
H         53.59783       65.89857       24.67657
H         53.53279       67.66274       26.07372
H         51.23284       65.91312       24.10834
H         51.77161       64.27638       24.62246
H         50.79004       65.29624       25.74413
N         55.83390       65.42390       26.16892
C         57.22469       65.76663       26.44624
C         57.62554       66.97399       25.60247
O         57.57296       66.90833       24.38276
C         58.12333       64.51963       26.16925
C         59.63710       64.85565       26.25421
C         57.75183       63.39754       27.16216
C         60.55094       63.68267       25.88718
H         55.60915       65.12031       25.21027
H         57.36104       66.03926       27.51637
H         57.91824       64.16672       25.13405
H         59.89844       65.21977       27.26956
H         59.86640       65.65735       25.52203
H         57.97146       63.71562       28.20499
H         56.67397       63.14506       27.09130
H         58.30730       62.46323       26.95056
H         61.60918       64.01722       25.89996
H         60.46103       62.84927       26.61137
H         60.31144       63.31551       24.86623
N         58.10136       68.09470       26.22080
C         58.63981       69.26922       25.54976
C         60.15787       69.33987       25.71659
O         60.74700       70.27912       25.19843
C         58.02816       70.55353       26.14982
C         56.52779       70.56423       26.13451
O         55.84228       70.68117       27.29059
O         55.92185       70.48942       25.07801
H         58.14484       68.10040       27.23764
H         58.41970       69.22439       24.46045
H         58.39660       71.43980       25.58844
H         58.37576       70.65334       27.19983
N         60.86589       68.37515       26.38396
C         62.31881       68.36982       26.48210
C         62.76386       68.12763       27.92865
O         63.40999       67.12026       28.18576
C         62.84779       67.30484       25.49099
C         64.35700       67.24563       25.41755
C         65.10531       68.38484       25.06770
C         65.03088       66.04129       25.68693
C         66.49993       68.32126       25.00287
C         66.42583       65.98120       25.61363
C         67.15983       67.12076       25.27511
H         60.37948       67.55955       26.77636
H         62.73676       69.34155       26.15001
H         62.47198       67.55521       24.47454
H         62.43012       66.31202       25.76450
H         64.61491       69.32383       24.84704
H         64.47819       65.14773       25.94997
H         67.06887       69.20359       24.73951
H         66.93806       65.05034       25.81927
H         68.23964       67.07331       25.22129
N         62.49308       69.01567       28.93846
C         62.99412       68.87457       30.30493
C         62.56730       67.61690       31.04082
O         63.10505       67.34994       32.10655
C         62.38415       70.07741       31.03364
C         62.31658       71.11067       29.93502
C         61.81693       70.28185       28.75394
H         64.10457       68.92861       30.24528
H         61.32510       69.84689       31.29935
H         62.91885       70.37981       31.95894
H         61.70246       72.00580       30.16332
H         63.36095       71.43419       29.72390
H         60.71947       70.10393       28.79686
H         62.09616       70.80802       27.81776
N         61.54012       66.85283       30.58437
C         61.04375       65.67831       31.28580
C         62.07403       64.58096       31.16955
O         62.51135       64.06264       32.18780
C         59.67111       65.23408       30.72278
C         58.52491       66.20866       31.08938
C         58.70940       67.59390       30.55089
O         58.82035       68.64432       31.38096
O         58.78276       67.77398       29.35416
H         61.07666       67.13128       29.71296
H         60.87139       65.91235       32.36156
H         59.39981       64.25946       31.18430
H         59.72821       65.08367       29.62461
H         58.44133       66.26991       32.19555
H         57.56668       65.80840       30.69330
N         62.54620       64.20866       29.94863
C         63.57782       63.20783       29.79762
H         64.48510       63.51323       30.36280
H         63.21586       62.22929       30.17595
H         63.84970       63.10535       28.72573
H         62.18859       64.67465       29.10062
Ca        56.90261       70.89762       29.28828
O         59.09223       72.72771       30.33264
H         59.29097       73.07852       29.42817
H         59.33621       73.46569       30.94580
O         54.62217       72.91294       29.77705
H         53.76315       72.85120       30.26535
H         54.37526       73.24727       28.87856
O         55.27199       68.55930       29.75445
H         54.96619       68.44254       28.81999
H         55.30280       67.64476       30.13054
O         54.20538       70.44998       31.80254
H         53.30351       70.26832       31.43650
H         54.03785       70.87867       32.67891
O         56.53145       72.96892       32.27137
H         56.05208       73.80410       32.50142
H         57.29775       72.94139       32.89786
O         57.00728       69.99775       33.09556
H         57.91356       69.84801       33.46544
H         56.45488       69.27989       33.49475

Ca 1.0



