%chk=apoCaM-CA-Ng.loop1.water4.frame547.chk
%nprocshared=20
%mem=10GB
%nosave
#b3lyp/svp scf=(tight,noincore,xqc) Test 
#IOP(5/87=12) Density=Current Pop=(MK,readradii) iop(6/33=2) iop(6/42=6)

apoCaM-CA-Ng.loop1.water4.frame547 

   0  1 
C         85.92220       40.97569       66.28490
C         85.77145       40.73018       64.81490
O         84.67514       40.88494       64.29645
H         86.66239       41.78606       66.45127
H         84.95267       41.27952       66.73499
H         86.27365       40.04814       66.78251
N         86.85525       40.35245       64.07359
C         86.82804       40.07533       62.63735
C         86.52495       41.31299       61.79546
O         86.44201       41.17259       60.58301
C         85.85161       38.91327       62.31630
C         86.19372       37.63087       63.03563
O         87.25889       37.54857       63.85807
O         85.49804       36.64329       62.86334
H         87.75799       40.23424       64.55845
H         87.84230       39.74091       62.32417
H         85.88006       38.70080       61.22569
H         84.80954       39.19597       62.56972
N         86.36389       42.55461       62.34993
C         86.03380       43.75933       61.59789
C         84.72829       43.54813       60.86285
O         84.67490       43.74729       59.65547
C         87.18481       44.17775       60.64892
C         88.49978       44.40636       61.40423
C         89.61718       44.84091       60.44791
C         90.93026       45.06263       61.20969
N         92.00272       45.46769       60.30186
H         86.45454       42.68116       63.36523
H         85.87944       44.58805       62.32502
H         86.89802       45.12282       60.13569
H         87.34558       43.40111       59.87067
H         88.80425       43.46280       61.90760
H         88.34712       45.19252       62.17547
H         89.32363       45.78604       59.94003
H         89.76979       44.05413       59.67638
H         91.22438       44.12107       61.72503
H         90.78247       45.85315       61.97881
H         91.74804       46.35898       59.81747
H         92.87742       45.62059       60.85401
H         92.17669       44.71762       59.59391
N         83.63944       43.07478       61.53838
C         82.38977       42.74095       60.87383
C         81.24307       43.47600       61.56929
O         81.06328       43.21959       62.75197
C         82.20433       41.20109       60.91449
C         81.22952       40.71183       59.87921
O         81.04142       39.51685       59.71872
O         80.67864       41.59968       59.03878
H         83.72372       42.88072       62.54829
H         82.48837       43.01141       59.81295
H         81.93265       40.85684       61.93573
H         83.17469       40.72922       60.64256
N         80.43934       44.42593       60.99517
C         80.47506       44.89876       59.62027
C         79.09487       44.84136       59.00597
O         78.20416       45.51801       59.50103
H         79.74841       44.88470       61.61077
H         81.18771       44.34779       58.99039
H         80.79813       45.96184       59.61607
N         78.85095       44.06652       57.91038
C         77.58018       44.05134       57.19425
C         76.78020       42.76999       57.37686
O         77.26463       41.68927       57.09356
C         77.78509       44.38790       55.70329
C         78.57460       43.47317       54.77400
O         79.23946       42.34174       55.11959
O         78.61961       43.80368       53.60000
H         79.62552       43.51109       57.54122
H         76.93870       44.87296       57.58175
H         78.25435       45.39496       55.65062
H         76.76763       44.47551       55.26185
N         75.47942       42.83858       57.78008
C         74.61163       41.67661       57.85363
C         74.88152       40.76263       59.02571
O         74.16390       39.78044       59.13800
H         75.05036       43.76066       57.94853
H         74.67249       41.10918       56.89832
H         73.56264       42.02537       57.96813
N         75.83244       41.01757       59.97215
C         75.98799       40.15228       61.14139
C         76.40330       38.74017       60.75474
O         76.86370       38.52329       59.64400
C         76.96144       40.75746       62.18496
C         78.39837       40.89820       61.66164
O         76.47974       42.01671       62.57832
H         76.40045       41.87183       59.89785
H         74.98705       40.08521       61.62463
H         76.97431       40.07720       63.06867
H         76.90904       42.23315       63.44705
H         78.44957       41.58369       60.79091
H         79.04726       41.31270       62.46103
H         78.80529       39.90872       61.36910
N         76.25731       37.72298       61.65027
C         76.62496       36.33607       61.35666
C         75.70875       35.73949       60.27217
O         76.08066       34.72702       59.69451
C         76.61754       35.48545       62.67701
C         77.59356       36.10207       63.72687
C         76.99292       34.00761       62.42786
C         77.45705       35.49657       65.12652
H         75.86549       37.95673       62.57403
H         77.66880       36.34546       60.96776
H         75.58415       35.51842       63.08859
H         77.39421       37.18226       63.86431
H         78.64362       36.00632       63.37404
H         76.95563       33.41579       63.36271
H         76.27348       33.51171       61.74925
H         78.01529       33.93195       61.99870
H         78.13933       36.02796       65.82349
H         76.41589       35.62402       65.49392
H         77.72748       34.42370       65.14909
N         74.50550       36.30387       59.93987
C         73.60694       35.77220       58.90822
C         72.26923       35.37553       59.53398
O         72.07144       35.61403       60.71914
C         73.39463       36.85926       57.81553
C         74.71205       37.29048       57.16608
O         72.54365       36.39345       56.80185
H         74.19065       37.14778       60.44118
H         74.04324       34.86338       58.43819
H         72.92876       37.73933       58.31738
H         72.09036       37.18759       56.41385
H         75.19350       36.43190       56.65365
H         74.51862       38.09482       56.42474
H         75.40993       37.69124       57.91839
N         71.29398       34.77512       58.78547
C         69.96014       34.46580       59.28991
C         69.70018       32.96767       59.21663
O         69.62806       32.34049       60.26396
C         68.91494       35.32834       58.52646
C         67.46935       34.98907       58.89722
O         69.07544       35.19451       57.13540
H         71.49013       34.54159       57.80154
H         69.88371       34.74752       60.36451
H         69.11749       36.38774       58.81659
H         68.90108       36.08216       56.72579
H         67.30830       35.10480       59.98827
H         66.77858       35.67050       58.35620
H         67.22360       33.94734       58.59828
N         69.50601       32.33464       58.02475
C         69.25213       30.90605       57.89860
C         70.22828       30.35122       56.89003
O         70.26915       30.85727       55.77545
C         67.80436       30.65976       57.42677
C         67.46344       29.15666       57.44421
C         66.04822       28.88553       56.92340
C         65.71199       27.38889       57.01362
N         64.38608       27.11343       56.46179
H         69.51245       32.88672       57.15786
H         69.36595       30.39629       58.88128
H         67.66045       31.08281       56.40826
H         67.10458       31.17752       58.11960
H         67.55001       28.78454       58.48976
H         68.18175       28.59407       56.80936
H         65.98761       29.21559       55.86329
H         65.30813       29.46014       57.52191
H         65.74092       27.06813       58.07942
H         66.46845       26.79768       56.45082
H         63.65772       27.65597       56.98017
H         64.36222       27.36812       55.44755
H         64.18084       26.09245       56.55733
N         71.03433       29.29835       57.18940
C         71.98687       28.78596       56.21887
C         73.06227       29.83110       55.92308
O         73.21341       30.16618       54.75700
C         72.54549       27.41242       56.64205
C         73.39689       26.79026       55.52341
C         73.78772       25.38213       55.86331
O         74.53318       25.12909       56.95529
O         73.43131       24.45856       55.14837
H         70.94817       28.84150       58.11049
H         71.42570       28.57395       55.27852
H         71.67393       26.74321       56.81998
H         73.12406       27.46155       57.58223
H         74.31314       27.39563       55.35643
H         72.80796       26.77844       54.57858
N         73.83206       30.43980       56.87560
C         73.73093       30.21896       58.30371
H         74.45397       30.87516       58.83366
H         72.71883       30.48369       58.67106
H         73.98143       29.17613       58.56532
H         74.52088       31.14246       56.56396
Ca        79.81517       41.23314       57.01219
O         82.78906       41.42526       56.44236
H         83.32569       41.02932       57.17416
H         82.99760       40.86815       55.65100
O         80.93181       39.11364       54.68079
H         81.85769       38.76620       54.63417
H         80.84217       39.68719       53.87860
O         78.61793       37.82806       56.85467
H         78.14275       37.00628       56.57289
H         78.74830       37.71809       57.82970
O         77.69158       39.79703       54.73043
H         78.30903       40.05337       54.00053
H         77.01508       40.51951       54.74496

Ca 1.0



