%chk=apoCaM-CA-Ng.loop1.water1.frame1296.chk
%nprocshared=20
%mem=10GB
%nosave
#b3lyp/svp scf=(tight,noincore,xqc) Test 
#IOP(5/87=12) Density=Current Pop=(MK,readradii) iop(6/33=2) iop(6/42=6)

apoCaM-CA-Ng.loop1.water1.frame1296 

   0  1 
C         75.55442       23.56748       83.65407
C         75.24250       23.73740       85.11105
O         74.09138       23.99381       85.43523
H         76.62081       23.30402       83.49460
H         74.92134       22.75916       83.23291
H         75.34011       24.51555       83.11655
N         76.22993       23.64494       86.04838
C         75.99128       23.83455       87.47557
C         76.55682       25.17097       87.91134
O         77.33820       25.24470       88.85037
C         76.51443       22.62353       88.29011
C         78.00468       22.36704       88.21765
O         78.52302       21.32514       88.89446
O         78.75137       23.08550       87.57159
H         77.19454       23.48464       85.72514
H         74.89913       23.90371       87.67202
H         75.99153       21.71094       87.93197
H         76.24765       22.77186       89.35910
N         76.16973       26.29485       87.24578
C         76.61412       27.63192       87.61146
C         76.10443       27.98785       88.99563
O         76.93572       28.27825       89.84415
C         76.20912       28.69928       86.55924
C         76.71704       28.39456       85.13521
C         78.25085       28.37110       85.02571
C         78.74703       27.99704       83.62016
N         78.29004       28.93129       82.59109
H         75.53286       26.18459       86.44416
H         77.72291       27.63782       87.65024
H         76.60542       29.68815       86.87810
H         75.11226       28.80790       86.49071
H         76.32102       29.19234       84.47288
H         76.30410       27.42781       84.77987
H         78.67192       27.60651       85.70878
H         78.65395       29.36516       85.31776
H         78.40895       26.96780       83.36491
H         79.85949       27.99580       83.64153
H         78.74623       28.68169       81.68435
H         77.25614       28.85636       82.46060
H         78.55242       29.91050       82.84682
N         74.78914       27.95883       89.36341
C         73.64893       27.58869       88.52302
C         73.05369       26.27773       88.99391
O         73.56037       25.68458       89.93739
C         72.64633       28.75728       88.45381
C         72.29113       29.28459       89.80579
O         71.69007       28.49719       90.71559
O         72.59967       30.42807       90.09589
H         74.58267       28.18136       90.35058
H         73.94039       27.37369       87.48739
H         71.72418       28.47360       87.90476
H         73.12725       29.58256       87.88329
N         72.02118       25.71505       88.30544
C         71.55298       24.36763       88.55900
C         71.07454       24.16590       89.99483
O         69.98529       24.99585       90.25445
H         71.59767       26.22434       87.51518
H         72.39173       23.66623       88.36136
H         70.72753       24.12087       87.85381
N         70.73139       22.75591       90.18812
C         69.98524       22.37439       91.40354
C         69.11264       21.19073       90.97522
O         69.62655       20.34393       90.25564
C         70.89071       21.92891       92.58681
C         71.98590       22.85118       93.10292
O         73.12146       22.41238       93.19005
O         71.74287       24.08965       93.58438
H         71.57392       22.14771       90.05870
H         69.34769       23.21464       91.74213
H         71.37819       20.96927       92.30980
H         70.21523       21.72094       93.44558
N         67.79480       21.03853       91.29107
C         67.08671       21.77983       92.31179
C         66.00223       22.65292       91.74849
O         65.12595       22.16156       91.05162
H         67.27875       20.26105       90.84802
H         67.77440       22.37103       92.94345
H         66.61547       21.03965       92.99315
N         65.97997       23.97218       92.08389
C         64.90706       24.88675       91.72461
C         65.38338       26.01687       90.82624
O         64.52934       26.79391       90.41546
C         64.19297       25.39805       93.00730
C         65.11385       26.13565       93.99132
O         63.61085       24.30075       93.66419
H         66.74207       24.33412       92.66795
H         64.13735       24.35187       91.12662
H         63.38904       26.09921       92.68163
H         62.87643       24.65469       94.23111
H         65.87502       25.44890       94.41346
H         65.61791       26.99276       93.50027
H         64.51647       26.51766       94.84688
N         66.68760       26.17057       90.43733
C         67.09490       27.17944       89.46281
C         67.92434       28.24072       90.14203
O         68.98073       27.94360       90.68138
C         67.85909       26.55288       88.26129
C         67.11534       25.34749       87.63496
C         68.19907       27.61826       87.20102
C         65.72478       25.66298       87.08145
H         67.41834       25.55064       90.81716
H         66.19563       27.67208       89.03770
H         68.82585       26.16071       88.61573
H         67.01160       24.54825       88.40095
H         67.73866       24.93221       86.81319
H         67.28161       28.09443       86.79871
H         68.83700       28.41610       87.63739
H         68.76844       27.15979       86.36502
H         65.77726       26.42486       86.27847
H         65.28631       24.73719       86.65457
H         65.04850       26.01847       87.88359
N         67.47651       29.52178       90.13669
C         68.16513       30.65047       90.73435
C         67.34951       31.22283       91.89049
O         67.73328       32.25883       92.41153
C         68.48729       31.70396       89.63739
C         67.26168       32.21092       88.86711
O         69.38559       31.15039       88.70921
H         66.56670       29.71373       89.69151
H         69.14053       30.34593       91.16575
H         68.95481       32.59469       90.12187
H         70.30181       31.34173       89.03925
H         67.57802       32.98849       88.13957
H         66.78941       31.39485       88.28083
H         66.51306       32.65099       89.55678
N         66.23823       30.58126       92.37617
C         65.43801       31.09144       93.48670
C         66.28411       31.20328       94.74426
O         66.65850       30.18209       95.30425
C         64.22044       30.15962       93.73080
C         63.35038       30.59610       94.91297
O         63.43346       30.12096       92.56737
H         65.94111       29.69434       91.94704
H         65.06159       32.09792       93.19828
H         64.61595       29.14051       93.95499
H         63.00759       29.22436       92.53249
H         63.93465       30.58767       95.85748
H         62.94250       31.61335       94.74301
H         62.50887       29.88077       95.03362
N         66.64404       32.43634       95.21417
C         67.47295       32.69713       96.39109
C         68.62028       31.69197       96.47743
O         68.76577       30.99268       97.47053
C         66.57289       32.73514       97.64225
C         67.23509       33.46958       98.81878
C         66.34168       33.40089      100.06710
C         66.88485       34.22320      101.24816
N         66.74328       35.66561      101.02996
H         66.36646       33.26148       94.66058
H         67.89390       33.71957       96.25669
H         66.26595       31.70084       97.91061
H         65.65076       33.31049       97.39975
H         67.39453       34.52383       98.50711
H         68.22222       33.02274       99.06196
H         66.29265       32.33360      100.37450
H         65.30814       33.74267       99.83950
H         67.94868       33.96168      101.44187
H         66.29708       33.95456      102.15340
H         67.10067       36.17337      101.87118
H         67.28672       35.98267      100.19745
H         65.73262       35.90735      100.90489
N         69.38285       31.48801       95.37236
C         70.31209       30.37624       95.20466
C         70.65090       30.24348       93.73092
O         70.33296       29.19930       93.17915
C         71.55765       30.44197       96.12954
C         72.62038       29.37077       95.79559
C         72.07850       27.96755       95.80144
O         71.54040       27.45042       96.92123
O         72.13231       27.28713       94.78838
H         69.17824       32.08013       94.55364
H         69.77125       29.43903       95.47446
H         71.22882       30.31643       97.18293
H         72.06606       31.42140       96.06876
H         73.44904       29.43878       96.53184
H         73.04966       29.59052       94.79251
N         71.24841       31.21368       92.98282
C         71.67778       32.52030       93.43133
H         72.77045       32.61811       93.26206
H         71.15223       33.29520       92.83620
H         71.46406       32.71995       94.49149
H         71.39670       31.01516       91.99010
Ca        70.60729       25.50659       92.31720
O         68.34480       25.81982       93.79329
H         68.37108       26.57126       94.43458
H         68.62566       25.02534       94.31445

Ca 1.0



