%chk=apoCaM-CA-Ng.loop2.water4.frame1343.chk
%nprocshared=20
%mem=10GB
%nosave
#b3lyp/svp scf=(tight,noincore,xqc) Test 
#IOP(5/87=12) Density=Current Pop=(MK,readradii) iop(6/33=2) iop(6/42=6)

apoCaM-CA-Ng.loop2.water4.frame1343 

   -2  1 
C         42.85415       39.76215      103.06149
C         43.07390       41.10681      102.40771
O         43.76479       41.90564      103.02316
H         42.35311       39.91081      104.03997
H         42.26357       39.02568      102.49668
H         43.84499       39.29328      103.23963
N         42.58638       41.48033      101.18471
C         41.73335       40.68098      100.30391
C         40.41385       41.37495       99.95877
O         39.58826       40.71884       99.33804
C         42.52733       40.23740       99.04703
C         43.05618       41.35731       98.19350
O         43.74356       41.11145       97.21615
O         42.77343       42.62778       98.50620
H         42.87469       42.41276      100.85571
H         41.42506       39.75017      100.79952
H         41.88925       39.58306       98.41431
H         43.39727       39.63838       99.39242
N         40.12029       42.66444      100.32434
C         38.81199       43.27538      100.08627
C         38.83818       44.38260       99.04118
O         37.76514       44.87670       98.72179
C         38.25745       43.81261      101.41247
H         40.82525       43.23824      100.80738
H         38.09830       42.51362       99.70388
H         37.24212       44.24211      101.27179
H         38.18875       42.99538      102.16123
H         38.92310       44.60768      101.81476
N         39.99031       44.82208       98.45254
C         40.01082       45.84929       97.40843
C         40.63203       45.30002       96.12771
O         40.98633       44.12938       96.08377
C         40.67230       47.14014       97.95001
C         42.10608       46.98140       98.36512
O         42.42047       47.11808       99.53705
O         43.04532       46.65668       97.45807
H         40.89274       44.42674       98.74948
H         38.97552       46.14502       97.13348
H         40.07436       47.46469       98.83150
H         40.61122       47.95266       97.19798
N         40.77013       46.09397       95.02801
C         41.24452       45.60943       93.73912
C         42.67930       45.99273       93.46869
O         43.34132       46.54357       94.33792
H         40.49454       47.08509       95.08589
H         40.59498       46.04950       92.95169
H         41.15464       44.50520       93.65814
N         43.22565       45.71706       92.24780
C         44.59708       46.06613       91.88639
C         44.78465       47.56375       91.98753
O         44.07604       48.29363       91.30662
C         44.92672       45.64218       90.43668
C         44.80988       44.15688       90.21291
N         43.95378       43.66597       89.28550
O         45.50687       43.39045       90.86072
H         42.62952       45.25322       91.54493
H         45.29834       45.54136       92.57455
H         45.97090       45.94265       90.19786
H         44.25086       46.18076       89.73581
H         43.36307       44.29624       88.72299
H         43.88342       42.65090       89.12264
N         45.71792       48.09218       92.82590
C         45.93220       49.52246       92.96627
C         45.63466       49.98333       94.37586
O         45.26565       49.16238       95.20497
H         46.30283       47.45944       93.39340
H         45.28136       50.09387       92.27218
H         46.99263       49.74623       92.71688
N         45.77931       51.28265       94.76314
C         46.20992       52.37060       93.88591
C         47.59857       52.85844       94.24741
O         48.12282       53.67936       93.50577
C         45.20598       53.54531       93.95754
C         43.82079       53.14633       93.44567
O         45.10916       53.99587       95.28646
H         45.58964       51.50861       95.75241
H         46.28415       52.02805       92.83478
H         45.58731       54.36799       93.30692
H         44.79453       54.93648       95.25671
H         43.39353       52.32234       94.05458
H         43.13791       54.02090       93.50391
H         43.88646       52.82298       92.38535
N         48.25796       52.41520       95.35631
C         49.59170       52.85406       95.72903
C         50.47678       51.61452       95.88097
O         50.13656       50.77346       96.70296
C         49.51991       53.65660       97.06263
C         48.57003       54.88485       96.99293
C         50.91797       54.08514       97.52701
C         48.96448       55.97065       95.98461
H         47.80070       51.75047       95.99616
H         49.99695       53.53796       94.96478
H         49.10545       52.98753       97.85015
H         48.53089       55.35582       97.99984
H         47.54131       54.54145       96.75405
H         51.42566       54.71730       96.76910
H         50.85349       54.64356       98.48461
H         51.53912       53.18718       97.70524
H         49.96513       56.39003       96.21171
H         48.95998       55.58371       94.94871
H         48.22853       56.80047       96.03751
N         51.63731       51.40581       95.18807
C         52.17970       52.31359       94.18060
C         53.68658       52.16499       94.01015
O         54.27813       51.21341       94.49687
C         51.44457       52.10438       92.83239
C         51.52230       50.67446       92.34997
O         50.39332       49.95535       92.19331
O         52.60006       50.16004       92.09619
H         52.17086       50.55487       95.42207
H         52.07200       53.35368       94.54834
H         51.86328       52.77405       92.05094
H         50.37340       52.36039       92.95353
N         54.37212       53.13612       93.33835
C         55.80687       53.09480       93.07854
C         56.51859       54.23279       93.80439
O         56.02420       55.34884       93.74875
C         56.05016       53.13702       91.54881
C         55.62385       54.41782       90.85746
C         54.47604       54.43728       90.04662
C         56.37895       55.59914       90.99456
C         54.07961       55.61867       89.41060
C         55.97875       56.77692       90.35950
C         54.82777       56.78803       89.57030
H         53.84619       53.95158       92.98903
H         56.22349       52.12585       93.39764
H         55.48591       52.27808       91.12259
H         57.12360       52.95716       91.32209
H         53.88130       53.54227       89.91506
H         57.28276       55.61222       91.59046
H         53.19047       55.62830       88.79436
H         56.56345       57.68038       90.47882
H         54.51924       57.70167       89.07909
N         57.71413       54.06755       94.45938
C         58.44432       52.82082       94.64289
C         57.66100       51.83614       95.47807
O         57.51241       50.68686       95.09108
C         59.71248       53.24405       95.40351
C         59.91444       54.65727       94.90776
C         58.48675       55.19037       94.95280
H         58.72200       52.40939       93.64586
H         59.50591       53.33724       96.49428
H         60.57328       52.55356       95.27598
H         60.65078       55.25712       95.48313
H         60.23976       54.60488       93.84329
H         58.16949       55.41488       95.99559
H         58.41080       56.09781       94.31566
N         57.08577       52.26642       96.63459
C         56.27728       51.41712       97.48980
C         57.19699       50.43644       98.20691
O         58.01217       50.90716       98.98846
C         55.51794       52.29036       98.51598
C         54.54274       53.26005       97.82075
C         53.91599       54.19232       98.81651
O         54.05424       55.39963       98.69556
O         53.19288       53.70564       99.84272
H         57.20134       53.25768       96.89165
H         55.50183       50.93354       96.87404
H         56.25289       52.87558       99.11282
H         54.93906       51.64040       99.20876
H         53.75718       52.67588       97.29686
H         55.06594       53.87379       97.05684
N         57.19499       49.08186       98.02370
C         56.37046       48.32522       97.10185
H         55.67604       48.92888       96.49938
H         57.03345       47.78559       96.39274
H         55.77778       47.57878       97.66899
H         57.86924       48.52789       98.57486
Ca        43.47880       44.47514       97.48158
O         45.98474       46.09642       96.16879
H         46.20995       46.89744       96.70503
H         46.65695       46.08684       95.44224
O         45.63822       45.09925       99.61375
H         46.09194       45.80626       99.08993
H         44.81450       45.53222       99.95194
O         46.54139       43.05613       96.45214
H         47.17848       42.34470       96.71331
H         46.91407       43.42571       95.61243
O         43.51048       42.73499       94.63273
H         42.72176       42.18678       94.87372
H         43.64475       42.56381       93.66702

Ca 1.0



