%chk=apoCaM-CA-Ng.loop4.water5.frame12.chk
%nprocshared=20
%mem=10GB
%nosave
#b3lyp/svp scf=(tight,noincore,xqc) Test 
#IOP(5/87=12) Density=Current Pop=(MK,readradii) iop(6/33=2) iop(6/42=6)

apoCaM-CA-Ng.loop4.water5.frame12 

   -3  1 
C         77.82515       32.11878       67.90651
C         79.18849       31.82503       67.36208
O         79.96827       32.75005       67.20362
H         77.05040       31.77778       67.19041
H         77.69781       31.58665       68.87288
H         77.69976       33.20827       68.08584
N         79.55313       30.53600       67.09797
C         80.87898       30.10690       66.65506
C         81.94239       30.56282       67.64466
O         82.93072       31.15978       67.25397
C         81.13500       30.40841       65.14959
C         80.97585       31.84306       64.73862
O         81.77113       32.79583       65.24854
O         80.09474       32.15664       63.95413
H         78.86451       29.79347       67.29419
H         80.90070       28.99545       66.71237
H         80.39492       29.81309       64.56901
H         82.14646       30.05104       64.85878
N         81.75904       30.27899       68.97062
C         82.65709       30.56368       70.09158
C         83.87519       29.65095       70.06329
O         83.94821       28.76012       70.89891
C         82.99446       32.07981       70.26865
C         83.89412       32.28335       71.52052
C         81.69415       32.89840       70.38073
C         84.21939       33.74300       71.83634
H         80.87921       29.80464       69.22573
H         82.09440       30.26592       71.00724
H         83.55399       32.44657       69.38227
H         84.85937       31.75809       71.35250
H         83.40765       31.84293       72.41705
H         81.90770       33.98661       70.42734
H         81.06125       32.74698       69.48716
H         81.11687       32.60246       71.28049
H         84.93729       33.79269       72.68236
H         84.65984       34.23855       70.95494
H         83.30890       34.29237       72.14284
N         84.89058       29.84104       69.17882
C         86.08814       29.00256       69.13793
C         87.28507       29.68699       69.80996
O         87.76547       29.11250       70.77736
C         86.41256       28.52013       67.70561
C         85.26446       27.77976       67.07985
O         84.78680       26.65858       67.65198
O         84.77106       28.18248       66.03796
H         84.80815       30.63604       68.54711
H         85.90082       28.07446       69.72614
H         87.29021       27.83824       67.74401
H         86.68056       29.36374       67.04528
N         87.86557       30.86709       69.41990
C         87.43319       31.72079       68.32933
C         88.45582       31.76590       67.22780
O         88.92394       30.70415       66.84159
H         88.68666       31.19321       69.95420
H         87.18253       32.71893       68.73189
H         86.54106       31.34816       67.83937
N         88.80983       32.91112       66.57514
C         88.30147       34.26051       66.85695
C         86.78762       34.34155       66.69383
O         86.21994       33.43549       66.09802
C         88.91336       35.24245       65.82362
C         90.41339       35.24916       65.84787
O         91.04235       34.91564       64.85547
O         91.07095       35.62750       66.95879
H         89.48145       32.79324       65.80013
H         88.58707       34.53093       67.89580
H         88.56894       36.27815       65.97963
H         88.56968       34.93661       64.80706
N         86.03485       35.40203       67.11761
C         86.45471       36.53563       67.93342
C         86.62149       36.18280       69.39643
O         86.57584       35.01809       69.75543
H         85.04514       35.40652       66.84511
H         85.61875       37.26938       67.91602
H         87.33769       37.05740       67.52740
N         86.76594       37.18735       70.30914
C         86.82592       36.99209       71.75916
C         85.69193       37.73244       72.48420
O         85.70473       37.75523       73.70886
C         88.19075       37.49377       72.27797
C         89.35083       36.62903       71.75589
C         90.68747       37.00833       72.34954
N         91.78410       36.27426       72.05252
O         90.78857       37.96077       73.11021
H         86.81708       38.15717       69.95891
H         86.73287       35.91840       72.03148
H         88.19888       37.41668       73.38764
H         88.34214       38.56152       71.99976
H         89.41344       36.69631       70.64824
H         89.14932       35.57305       72.03763
H         91.71586       35.45935       71.42526
H         92.70013       36.51024       72.46223
N         84.68570       38.36004       71.81081
C         83.65958       39.19823       72.43623
C         83.82631       40.58306       71.86094
O         83.96608       40.67170       70.65650
C         82.23122       38.66297       72.14779
C         81.15624       39.60592       72.72852
C         82.04350       37.26735       72.75283
H         84.65259       38.28557       70.78302
H         83.78110       39.24396       73.54267
H         82.07705       38.59636       71.04884
H         81.21741       40.61507       72.26878
H         80.13919       39.21277       72.51985
H         81.27754       39.71285       73.82862
H         82.18430       37.29607       73.85531
H         81.02109       36.88966       72.53915
H         82.77249       36.55937       72.31405
N         83.80077       41.69088       72.65692
C         84.08396       43.07233       72.25843
C         83.29227       43.60386       71.05440
O         82.45181       44.47140       71.24615
C         85.60633       43.26216       72.07261
C         85.98487       44.69402       71.77145
N         85.71290       45.68859       72.64943
O         86.55214       44.95556       70.72139
H         83.59064       41.54687       73.65778
H         83.80300       43.70065       73.13460
H         85.96899       42.60317       71.25547
H         86.12858       42.95204       73.00418
H         85.24484       45.49351       73.54591
H         85.97612       46.66174       72.43355
N         83.61026       43.23074       69.77881
C         83.12108       43.86548       68.56560
C         82.33375       42.89892       67.68228
O         82.84701       41.86091       67.29012
C         84.37790       44.43924       67.85949
C         84.19485       44.95372       66.45491
C         84.04886       44.04950       65.38818
C         84.24461       46.32822       66.18096
C         83.93732       44.50614       64.07787
C         84.13109       46.78688       64.86391
C         83.97836       45.87837       63.80937
O         83.88540       46.33079       62.54373
H         84.36180       42.55309       69.62469
H         82.45635       44.72436       68.80521
H         85.18225       43.67225       67.80326
H         84.76246       45.24902       68.51886
H         84.04825       42.98437       65.55604
H         84.37557       47.04302       66.98374
H         83.83132       43.78830       63.27387
H         84.17253       47.84886       64.66256
H         83.79738       45.72753       61.79155
N         81.07275       43.24832       67.28530
C         80.26405       42.58303       66.26667
C         79.98499       41.12560       66.57528
O         80.30199       40.26415       65.76828
C         80.85544       42.82454       64.85229
C         79.86789       42.44406       63.72525
C         80.41293       42.79768       62.37136
O         80.57191       41.93091       61.52640
O         80.69881       44.07921       62.07126
H         80.66200       44.10848       67.67952
H         79.27755       43.10007       66.25693
H         81.81367       42.27654       64.72771
H         81.05768       43.91432       64.75640
H         78.91284       42.99522       63.86369
H         79.64052       41.35898       63.74581
N         79.32784       40.78449       67.71552
C         78.83199       39.43561       67.96792
C         77.30671       39.44795       68.12228
O         76.72707       38.38608       68.29876
C         79.56643       38.85787       69.19823
C         79.29932       37.36420       69.47558
C         79.71439       36.49315       68.32159
O         78.89643       35.78422       67.75745
O         80.99472       36.49052       67.90709
H         79.13188       41.52102       68.41092
H         79.06148       38.77890       67.10183
H         79.30125       39.45451       70.09680
H         80.66007       38.97024       69.02661
H         78.23201       37.19547       69.71994
H         79.88581       37.05615       70.36487
N         76.57437       40.60039       68.04141
C         75.13728       40.61183       68.20541
H         74.65837       39.97400       67.43334
H         74.87108       40.24073       69.21780
H         74.75317       41.64943       68.09850
H         77.02217       41.50836       67.86024
Ca        81.15421       34.95336       64.99386
O         82.93115       34.32823       67.17793
H         82.51736       34.13469       68.05136
H         83.58876       33.60129       67.04268
O         79.85434       37.63930       64.59636
H         80.13994       37.85534       63.67364
H         80.68243       37.71036       65.13411
O         82.83331       35.44137       62.66826
H         83.48712       35.52069       63.40798
H         82.51284       34.50549       62.72061
O         78.35684       34.82493       63.79632
H         78.06672       33.92694       64.09500
H         78.19090       35.40873       64.57843
O         83.23271       37.19398       65.87723
H         84.13025       37.27483       65.46774
H         83.30059       37.69262       66.72984

Ca 1.0



