%chk=apoCaM-CA-Ng.loop2.water3.frame454.chk
%nprocshared=20
%mem=10GB
%nosave
#b3lyp/svp scf=(tight,noincore,xqc) Test 
#IOP(5/87=12) Density=Current Pop=(MK,readradii) iop(6/33=2) iop(6/42=6)

apoCaM-CA-Ng.loop2.water3.frame454 

   -2  1 
C         59.26534       85.63889       80.86770
C         58.58982       86.92874       80.49997
O         58.86022       87.44407       79.42502
H         60.36507       85.78993       80.89972
H         58.93077       85.27171       81.86060
H         59.02750       84.86599       80.10667
N         57.70061       87.51397       81.35301
C         57.00799       88.76751       81.06540
C         57.43664       89.83328       82.06606
O         58.08385       89.50404       83.05039
C         55.48942       88.49448       81.10173
C         54.64209       89.68528       80.76078
O         54.73083       90.21153       79.66302
O         53.76284       90.16477       81.66134
H         57.50798       87.05396       82.25478
H         57.29383       89.13078       80.05417
H         55.21514       88.12991       82.11641
H         55.25174       87.68842       80.37340
N         57.16328       91.15543       81.84310
C         57.63239       92.22027       82.73201
C         59.15439       92.24220       82.80253
O         59.78969       91.47407       82.09228
C         57.09514       93.57641       82.26040
H         56.63166       91.41472       81.00015
H         57.23222       92.02343       83.75133
H         57.46987       93.80947       81.24079
H         55.98444       93.54891       82.23555
H         57.40152       94.38779       82.95254
N         59.81413       93.06699       83.66829
C         61.25503       92.96127       83.89596
C         62.00667       94.21381       83.49643
O         61.39712       95.22362       83.16594
C         61.50849       92.64695       85.38382
C         60.79299       91.39929       85.81762
O         61.05535       90.32787       85.29795
O         59.85589       91.45978       86.78304
H         59.27477       93.73595       84.24004
H         61.68179       92.13706       83.28244
H         61.14774       93.50082       85.99932
H         62.59413       92.51556       85.57737
N         63.36973       94.18583       83.46869
C         64.16884       95.34623       83.10130
C         65.66355       95.10304       82.88686
O         66.34846       96.09087       82.66861
H         63.81452       93.29643       83.71816
H         64.03699       96.11285       83.89624
H         63.78851       95.76695       82.14543
N         66.24708       93.86208       82.87998
C         67.66932       93.63595       82.62432
C         67.81086       92.76408       81.36863
O         66.80339       92.36953       80.79728
C         68.26086       92.91376       83.86824
C         69.77013       92.91999       84.00649
N         70.36724       92.09266       84.89527
O         70.45760       93.69539       83.35911
H         65.69090       93.01504       83.03260
H         68.19327       94.60380       82.47429
H         67.88509       91.86595       83.86446
H         67.88476       93.39157       84.79814
H         69.80995       91.43671       85.46154
H         71.39253       92.09543       85.00592
N         69.03431       92.36938       80.92222
C         69.24448       91.38319       79.87802
C         69.82470       90.13707       80.51049
O         69.90955       90.06998       81.73089
H         69.88123       92.70322       81.38616
H         69.94860       91.80603       79.12939
H         68.30394       91.10561       79.35579
N         70.25380       89.09720       79.74417
C         70.84114       87.90240       80.34958
C         69.77938       86.90427       80.80594
O         70.15213       85.91571       81.42212
C         71.90386       87.24829       79.42646
C         71.33870       86.60798       78.15101
O         72.91895       88.17095       79.11379
H         70.20850       89.19081       78.71911
H         71.41256       88.21846       81.25213
H         72.38362       86.42446       79.99951
H         72.55063       88.82901       78.46854
H         72.16673       86.15026       77.57003
H         70.62948       85.80061       78.41571
H         70.82696       87.35233       77.50808
N         68.44952       87.08411       80.53925
C         67.40600       86.13597       80.92208
C         66.43723       86.80707       81.87986
O         66.06354       87.95310       81.67023
C         66.67205       85.59478       79.65908
C         67.64517       84.93748       78.64405
C         65.54522       84.60876       80.03139
C         68.41681       83.71690       79.16603
H         68.14386       87.91986       80.01989
H         67.83901       85.25821       81.44721
H         66.19685       86.45420       79.13551
H         68.37317       85.70019       78.30505
H         67.06933       84.62202       77.74723
H         65.93791       83.74171       80.60239
H         64.77224       85.10619       80.65184
H         65.04094       84.23697       79.11432
H         69.05766       83.97793       80.03036
H         67.72813       82.89837       79.45780
H         69.08039       83.33216       78.36364
N         65.93906       86.09561       82.92794
C         65.00049       86.61374       83.91293
C         65.53361       86.36972       85.33394
O         64.80362       86.58897       86.29021
C         63.64176       85.93002       83.65136
C         62.52514       86.43538       84.56187
O         61.31500       85.81089       84.23551
O         62.32651       87.81395       84.44585
H         66.20282       85.10044       83.01121
H         64.84148       87.70631       83.77960
H         63.74305       84.83032       83.78443
H         63.34040       86.12792       82.59843
N         66.82074       85.95818       85.54788
C         67.38332       85.67956       86.86536
C         66.78908       84.39841       87.42683
O         66.88538       83.38192       86.75239
C         68.92442       85.55902       86.74498
C         69.61026       85.25979       88.05979
C         70.27734       86.27749       88.76257
C         69.60784       83.95463       88.58714
C         70.91363       85.99659       89.97615
C         70.25170       83.67690       89.79478
C         70.90136       84.69761       90.49117
H         67.45620       85.86678       84.74295
H         67.20295       86.54920       87.53108
H         69.28282       86.54004       86.36030
H         69.22811       84.79257       85.99796
H         70.29615       87.28967       88.37852
H         69.12190       83.14513       88.05991
H         71.41794       86.78629       90.51724
H         70.24891       82.66841       90.18812
H         71.39821       84.48054       91.42763
N         66.21884       84.32969       88.67131
C         65.78257       83.07963       89.27337
C         64.44597       82.60272       88.73631
O         64.04901       81.49691       89.07694
C         65.70834       83.42109       90.76518
C         65.24099       84.86349       90.72749
C         66.09219       85.43832       89.59586
H         66.54063       82.27852       89.12300
H         65.09901       82.72740       91.38387
H         66.74519       83.43459       91.17286
H         64.17614       84.85747       90.39986
H         65.31025       85.42211       91.68455
H         65.56987       86.31631       89.15870
H         67.10987       85.72103       89.94511
N         63.67915       83.38185       87.92354
C         62.39348       82.93833       87.40211
C         62.57225       82.07065       86.15963
O         61.57373       81.58678       85.64338
C         61.53104       84.15626       87.03635
C         61.24447       85.08741       88.22448
C         60.46098       86.28828       87.77499
O         59.35546       86.15099       87.27661
O         60.97611       87.52454       87.92003
H         63.99404       84.33598       87.69712
H         61.84684       82.36881       88.18645
H         60.56281       83.81849       86.60463
H         62.08798       84.71691       86.27684
H         62.19684       85.43948       88.67438
H         60.66835       84.54245       89.00197
N         63.79689       81.85059       85.59712
C         63.96081       81.07030       84.39040
H         65.03556       81.02807       84.11065
H         63.59232       80.03571       84.55128
H         63.39940       81.54297       83.55615
H         64.64645       82.25644       86.01018
Ca        60.06257       87.69404       84.23480
O         57.40941       86.22308       84.88954
H         56.80612       86.97014       84.64729
H         57.19323       85.50653       84.24155
O         61.40926       89.21724       82.14730
H         62.08297       89.17638       81.42494
H         60.57912       88.86627       81.73721
O         57.75034       88.83382       86.74947
H         57.21968       88.11876       87.18292
H         57.08003       89.51090       86.48027

Ca 1.0



