%chk=apoCaM-CA-Ng.loop2.water2.frame865.chk
%nprocshared=20
%mem=10GB
%nosave
#b3lyp/svp scf=(tight,noincore,xqc) Test 
#IOP(5/87=12) Density=Current Pop=(MK,readradii) iop(6/33=2) iop(6/42=6)

apoCaM-CA-Ng.loop2.water2.frame865 

   -2  1 
C         62.85125       41.86372       96.61044
C         63.03867       41.12994       95.31762
O         63.50811       40.00036       95.33228
H         61.77318       42.08081       96.75766
H         63.21671       41.25496       97.46507
H         63.41813       42.81830       96.58549
N         62.71298       41.73151       94.14013
C         62.89618       41.07073       92.85410
C         61.89924       39.93131       92.66062
O         62.15127       39.07567       91.82343
C         62.76792       42.09924       91.71042
C         63.13564       41.52351       90.37117
O         64.37332       41.03314       90.16497
O         62.32346       41.51489       89.46034
H         62.36871       42.70448       94.16526
H         63.93598       40.67188       92.83471
H         63.46120       42.94570       91.90691
H         61.73005       42.50094       91.68760
N         60.70327       39.90799       93.32631
C         59.68728       38.87882       93.08759
C         58.33423       39.24440       93.70607
O         58.28118       40.16032       94.51522
C         60.16698       37.53448       93.66217
H         60.49009       40.69080       93.95947
H         59.53746       38.82929       91.98814
H         60.32893       37.63485       94.75785
H         59.42941       36.72518       93.50197
H         61.12090       37.21526       93.19759
N         57.16082       38.62164       93.37092
C         56.98974       37.58490       92.34958
C         56.14342       38.12314       91.19953
O         55.69587       39.25879       91.27695
C         56.42929       36.28384       92.96617
C         55.08574       36.42770       93.62306
O         54.13488       35.78807       93.20790
O         54.93749       37.20016       94.71471
H         56.30807       38.96753       93.83541
H         57.96179       37.32038       91.89632
H         57.13943       35.90589       93.73229
H         56.36183       35.51377       92.16787
N         55.97507       37.40138       90.04979
C         55.37989       37.97720       88.84882
C         54.35841       37.09445       88.15473
O         54.64851       36.67028       87.04481
H         56.41013       36.46969       89.97459
H         56.21821       38.13050       88.13434
H         54.93227       38.97718       89.02851
N         53.11759       36.81162       88.64809
C         52.61580       37.22272       89.94973
C         51.82775       38.52585       89.79293
O         50.81388       38.52873       89.10723
C         51.72438       36.07432       90.49232
C         51.46799       36.05957       92.00789
N         50.35662       35.15400       92.28983
O         51.13938       37.32703       92.45998
H         52.48170       36.26802       88.04043
H         53.47254       37.35194       90.63834
H         52.20912       35.09754       90.27594
H         50.76161       36.08438       89.92924
H         50.52264       34.22169       91.85022
H         50.29654       35.00401       93.31665
N         52.27107       39.68924       90.35351
C         51.60458       40.97912       90.17734
C         50.31964       41.15410       90.97653
O         49.69492       42.19635       90.84586
H         53.16535       39.67828       90.85933
H         51.41387       41.14499       89.09481
H         52.29042       41.78255       90.52278
N         49.89013       40.20745       91.85197
C         48.70163       40.30626       92.69482
C         49.10717       40.27698       94.16946
O         50.28661       40.16115       94.46840
C         47.73528       39.13974       92.35350
C         47.22257       39.23788       90.91212
O         48.39040       37.90943       92.53502
H         50.45082       39.36862       91.95015
H         48.17167       41.26749       92.52144
H         46.84848       39.20020       93.02515
H         47.70462       37.24131       92.79445
H         48.05917       39.18532       90.18377
H         46.52155       38.40203       90.70116
H         46.67702       40.19475       90.76778
N         48.16462       40.38826       95.14971
C         48.45551       40.33449       96.58310
C         47.77597       39.09821       97.13471
O         46.56525       38.97104       97.01219
C         47.98238       41.64527       97.27240
C         48.00704       41.59462       98.82613
C         48.80271       42.83960       96.75077
C         49.37711       41.35538       99.46578
H         47.17779       40.49738       94.87106
H         49.54913       40.23563       96.76146
H         46.91883       41.81583       96.99290
H         47.31930       40.79462       99.17505
H         47.60676       42.55664       99.21552
H         49.88166       42.71480       96.98371
H         48.70212       42.93445       95.64945
H         48.44539       43.78502       97.21017
H         49.79551       40.37908       99.15408
H         50.09089       42.16303       99.20832
H         49.26067       41.34460      100.57109
N         48.52707       38.11408       97.70532
C         48.00132       36.80871       98.08624
C         48.19215       36.50526       99.56183
O         47.68702       35.48082      100.00189
C         48.71835       35.73893       97.24310
C         48.64812       36.08556       95.78584
O         47.57582       36.12465       95.20541
O         49.77338       36.42921       95.13686
H         49.53701       38.26652       97.79708
H         46.91068       36.76383       97.87368
H         48.29056       34.72750       97.41283
H         49.79030       35.71318       97.54052
N         48.92016       37.31446      100.38901
C         49.04797       37.05466      101.81612
C         50.23356       37.82013      102.41179
O         50.23846       39.03863      102.29484
C         47.73634       37.48892      102.51444
C         47.82495       37.42577      104.02247
C         47.70308       38.60624      104.77828
C         48.04336       36.20785      104.68646
C         47.80844       38.56907      106.17038
C         48.15248       36.17566      106.08085
C         48.03670       37.35526      106.82163
H         49.39341       38.14362      100.00787
H         49.19159       35.97246      101.95615
H         46.88691       36.86449      102.16432
H         47.52154       38.53744      102.20796
H         47.53360       39.55875      104.29109
H         48.13601       35.28689      104.12652
H         47.71703       39.48331      106.74278
H         48.33072       35.23650      106.58767
H         48.12330       37.32992      107.90000
N         51.24697       37.20893      103.12117
C         52.23561       37.96538      103.88828
C         53.26021       38.73986      103.07660
O         54.06897       39.43359      103.67769
C         52.93177       36.90766      104.75452
C         51.84655       35.85875      104.90285
C         51.31887       35.80328      103.47996
H         51.66330       38.65637      104.54811
H         53.75204       36.42850      104.17110
H         53.35352       37.29800      105.70505
H         52.19634       34.88255      105.29954
H         51.04271       36.25702      105.56297
H         52.07546       35.31055      102.82646
H         50.38097       35.22756      103.45090
N         53.30757       38.65591      101.71609
C         54.28900       39.36998      100.89501
C         54.22346       40.88659      101.05348
O         55.14803       41.54905      100.60180
C         54.17729       38.93223       99.40541
C         52.79630       39.21492       98.77777
C         52.57284       38.45846       97.48829
O         53.17612       38.80162       96.33564
O         51.75601       37.55472       97.46658
H         52.65435       38.01024      101.25834
H         55.29496       39.05866      101.25767
H         54.34588       37.83346       99.39210
H         54.97437       39.40415       98.78936
H         52.62825       40.30450       98.63692
H         52.00062       38.87094       99.46459
N         53.19851       41.51220      101.70172
C         53.20327       42.93851      101.94817
H         52.26687       43.23716      102.46612
H         54.06195       43.20036      102.60462
H         53.28220       43.49866      100.99351
H         52.39004       40.97543      102.04400
Ca        52.13608       38.04920       94.42501
O         52.65189       35.11679       95.84957
H         52.16494       34.42174       96.35908
H         53.59949       34.83178       95.88351
O         53.53361       40.45895       93.71562
H         53.91360       39.86730       93.02121
H         54.25404       40.53167       94.38974

Ca 1.0



