%chk=apoCaM-CA-Ng.loop3.water2.frame715.chk
%nprocshared=20
%mem=10GB
%nosave
#b3lyp/svp scf=(tight,noincore,xqc) Test 
#IOP(5/87=12) Density=Current Pop=(MK,readradii) iop(6/33=2) iop(6/42=6)

apoCaM-CA-Ng.loop3.water2.frame715 

   0  1 
C         68.87535       74.77893      -10.13587
C         69.14763       73.33010      -10.41437
O         69.76318       73.03495      -11.42597
H         68.30663       74.91200       -9.19186
H         69.84182       75.31948      -10.03804
H         68.29525       75.22018      -10.97151
N         68.76135       72.36897       -9.53051
C         69.11311       70.96301       -9.68895
C         68.31424       70.31091      -10.81238
O         67.09296       70.29620      -10.75228
C         68.93279       70.23707       -8.34188
C         69.58769       68.88699       -8.29015
O         69.58598       68.20752       -7.12957
O         70.17161       68.42460       -9.25788
H         68.28743       72.66812       -8.66397
H         70.19763       70.91507       -9.91090
H         67.85572       70.16054       -8.08094
H         69.43822       70.84055       -7.55634
N         68.95940       69.76259      -11.88107
C         68.28553       69.17627      -13.04039
C         67.43414       67.96302      -12.70064
O         66.47820       67.70302      -13.41789
C         69.30083       68.83295      -14.16332
C         70.37632       67.79418      -13.77261
C         71.39272       67.60250      -14.90845
C         72.53883       66.67116      -14.48527
N         73.52006       66.52331      -15.56062
H         69.98302       69.80831      -11.88182
H         67.60805       69.95511      -13.45644
H         69.81446       69.77744      -14.44788
H         68.74962       68.46442      -15.05689
H         69.89866       66.82117      -13.53302
H         70.93389       68.14056      -12.87933
H         71.83026       68.58999      -15.17339
H         70.87885       67.18750      -15.80297
H         72.13531       65.67133      -14.21154
H         73.04686       67.10003      -13.59406
H         73.07373       66.08254      -16.39719
H         73.91326       67.45686      -15.82207
H         74.30185       65.91212      -15.23055
N         67.76439       67.13795      -11.67075
C         67.03698       65.91737      -11.33278
C         66.49566       66.02266       -9.90206
O         65.29513       65.86421       -9.72747
C         67.92046       64.68875      -11.68413
C         69.27815       64.70918      -11.04764
O         70.27922       64.95025      -11.70239
O         69.37183       64.50287       -9.73542
H         68.60620       67.36214      -11.12281
H         66.14385       65.79426      -11.98722
H         68.06919       64.72280      -12.78635
H         67.39738       63.73650      -11.44880
N         67.28754       66.40667       -8.85702
C         66.78268       66.72607       -7.52383
C         67.51686       66.03110       -6.38923
O         67.26529       66.39557       -5.24932
H         68.27818       66.59719       -9.03468
H         65.69323       66.53097       -7.42589
H         66.93159       67.81727       -7.37882
N         68.43219       65.04181       -6.60558
C         69.16940       64.34413       -5.55267
C         70.71771       64.58298       -5.68306
O         71.08515       65.85541       -6.13494
C         68.90316       62.81942       -5.72139
C         67.47178       62.31945       -5.63001
N         66.43287       63.09000       -5.23006
O         67.25741       61.15257       -5.92366
H         68.58942       64.73113       -7.56370
H         68.84999       64.70038       -4.54986
H         69.49062       62.22594       -4.99445
H         69.26783       62.54843       -6.73915
H         66.55698       64.06048       -4.93063
H         65.48126       62.69482       -5.19057
N         71.43980       64.28612       -4.43115
C         72.90338       64.24875       -4.61596
C         73.53649       65.62864       -4.70434
O         73.41155       66.40217       -3.76595
H         71.16033       63.33237       -4.11092
H         73.15765       63.62418       -5.50057
H         73.35667       63.75482       -3.72848
N         74.24477       65.99104       -5.81390
C         74.93111       67.27278       -5.98904
C         74.20922       68.12390       -7.02937
O         73.15501       67.72829       -7.50306
C         76.40473       67.01981       -6.41430
C         77.30244       66.51380       -5.31068
C         77.53461       67.30983       -4.17369
C         77.97385       65.28632       -5.43305
C         78.42330       66.88738       -3.18095
C         78.86321       64.86520       -4.43714
C         79.09435       65.66396       -3.31154
O         79.96799       65.25212       -2.37015
H         74.28901       65.32570       -6.59977
H         74.91198       67.87825       -5.05725
H         76.89082       67.95858       -6.74189
H         76.41394       66.33944       -7.29404
H         77.04490       68.26931       -4.06395
H         77.82516       64.66324       -6.30559
H         78.59921       67.51790       -2.31792
H         79.38444       63.92257       -4.54680
H         80.16843       65.78310       -1.58574
N         74.72315       69.34458       -7.38375
C         74.11852       70.33166       -8.27986
C         73.88096       69.79208       -9.69001
O         73.19404       68.79211       -9.83793
C         72.80975       70.93128       -7.68751
C         72.32163       72.16587       -8.50396
C         72.95714       71.30309       -6.20022
C         73.25182       73.38891       -8.49086
H         75.60797       69.64174       -6.94885
H         74.84348       71.16841       -8.33804
H         72.01869       70.15423       -7.73756
H         71.33803       72.49062       -8.10291
H         72.17587       71.87533       -9.56156
H         73.18344       70.40302       -5.59162
H         73.77181       72.03843       -6.04168
H         72.00298       71.72618       -5.81871
H         73.39688       73.77498       -7.46182
H         74.23924       73.16730       -8.94147
H         72.79411       74.20079       -9.09372
N         74.34199       70.46565      -10.78632
C         74.04885       70.03864      -12.15589
C         75.28559       69.87693      -13.01797
O         75.13006       69.44766      -14.15418
C         73.13532       71.06615      -12.83230
O         71.95398       71.20452      -12.10341
H         74.84920       71.35204      -10.64432
H         73.52150       69.05962      -12.15087
H         72.90001       70.71122      -13.86411
H         73.64633       72.05228      -12.88751
H         71.28889       71.57859      -12.73683
N         76.53414       70.22914      -12.59601
C         77.68991       70.12879      -13.48034
C         77.96533       68.68057      -13.84630
O         77.49889       67.80530      -13.12885
C         78.91084       70.73184      -12.79748
H         76.66782       70.61408      -11.65073
H         77.46208       70.71367      -14.39850
H         79.77900       70.63702      -13.45790
H         78.73363       71.80692      -12.57775
H         79.13440       70.19873      -11.84921
N         78.65684       68.29873      -14.96075
C         79.17429       69.17083      -16.01706
C         80.42974       68.53813      -16.61131
O         80.35580       67.36280      -16.94613
C         78.11298       69.27655      -17.11823
H         78.68482       67.28190      -15.13939
H         79.35531       70.20048      -15.66092
H         78.48117       69.92267      -17.94428
H         77.86157       68.27523      -17.52998
H         77.18415       69.72995      -16.71086
N         81.61129       69.18528      -16.84203
C         81.90044       70.60395      -16.65163
C         81.88808       71.00278      -15.19294
O         81.18629       71.94347      -14.84833
C         83.29102       70.92005      -17.26010
C         83.66017       72.41028      -17.19258
C         85.01302       72.65169      -17.79936
O         86.00607       73.16711      -17.04956
O         85.21907       72.38722      -18.97335
H         82.35718       68.61107      -17.26874
H         81.15203       71.20193      -17.21967
H         83.28292       70.60955      -18.32886
H         84.07400       70.32676      -16.73729
H         83.68181       72.74588      -16.13371
H         82.90344       73.01217      -17.74000
N         82.68694       70.36981      -14.28998
C         82.75546       70.76880      -12.90023
H         83.09145       71.82477      -12.82562
H         81.76751       70.66347      -12.41227
H         83.47804       70.12452      -12.35730
H         83.27985       69.58574      -14.60017
Ca        70.63194       65.72904       -8.34458
O         72.89996       63.68563       -8.37943
H         73.87045       63.53311       -8.25719
H         72.59547       62.92114       -8.92952
O         73.43637       65.77670      -11.09663
H         73.74391       64.86116      -10.87888
H         74.22952       66.21579      -11.49508

Ca 1.0



