%chk=apoCaM-CA-Ng.loop1.water3.frame277.chk
%nprocshared=20
%mem=10GB
%nosave
#b3lyp/svp scf=(tight,noincore,xqc) Test 
#IOP(5/87=12) Density=Current Pop=(MK,readradii) iop(6/33=2) iop(6/42=6)

apoCaM-CA-Ng.loop1.water3.frame277 

   0  1 
C         46.96873       39.53729       38.29826
C         46.61022       40.98837       38.18150
O         46.50879       41.50358       37.07711
H         47.90189       39.42677       38.88800
H         46.14679       39.00054       38.82104
H         47.10839       39.07949       37.29705
N         46.35792       41.70250       39.30848
C         45.88036       43.07724       39.28830
C         46.96864       44.10286       38.97598
O         46.62285       45.26111       39.02045
C         45.23955       43.44512       40.65632
C         44.03246       42.60531       40.99303
O         42.93930       43.13462       41.12081
O         44.14604       41.27755       41.18395
H         46.41859       41.20826       40.21200
H         45.06687       43.17387       38.53393
H         44.89124       44.50087       40.61613
H         45.99025       43.36338       41.47208
N         48.27462       43.82223       38.68759
C         49.30054       44.87994       38.63236
C         49.91809       45.08805       37.25650
O         50.05281       44.10546       36.54131
C         50.39702       44.54900       39.66136
C         49.87472       44.77551       41.08559
C         51.01088       44.75585       42.10943
C         50.49455       45.18982       43.48692
N         51.58793       45.28200       44.45120
H         48.57686       42.84314       38.58254
H         48.87787       45.85391       38.91606
H         51.25305       45.22399       39.50795
H         50.79095       43.51829       39.52271
H         49.08634       44.03408       41.34037
H         49.42462       45.78962       41.12431
H         51.78863       45.48550       41.79103
H         51.46783       43.74398       42.15846
H         49.72984       44.46734       43.84805
H         50.01805       46.19238       43.39963
H         52.29377       45.98166       44.12320
H         51.20416       45.60073       45.36999
H         52.04244       44.34861       44.57140
N         50.41568       46.30299       36.81020
C         50.38711       47.62794       37.47468
C         51.03866       47.62614       38.83979
O         50.35308       47.81895       39.83324
C         48.97704       48.26644       37.45609
C         48.58354       48.63128       36.05446
O         49.46456       48.46827       35.04732
O         47.46620       49.06169       35.82469
H         50.87995       46.28987       35.88812
H         51.00185       48.34662       36.88983
H         48.96016       49.20375       38.05166
H         48.22655       47.58242       37.88288
N         52.38096       47.44857       38.99344
C         53.30598       47.37617       37.87078
C         54.73144       47.11157       38.31097
O         54.92963       46.58091       39.39454
H         52.74980       47.42806       39.95613
H         53.25320       48.34031       37.33245
H         53.02172       46.56374       37.16858
N         55.80087       47.36241       37.50305
C         55.71779       48.04283       36.21231
C         55.44881       49.53718       36.37220
O         55.77294       50.10521       37.40677
C         57.02058       47.82379       35.39994
C         58.27767       48.25409       36.11905
O         59.22374       47.34087       36.41490
O         58.45225       49.42071       36.43148
H         56.72303       47.04198       37.83671
H         54.89858       47.58394       35.61647
H         56.95968       48.35617       34.42617
H         57.10754       46.73673       35.18472
N         54.93441       50.24910       35.32706
C         54.85392       51.70316       35.30043
C         53.92379       52.35396       36.30026
O         53.94798       53.57679       36.35277
H         54.67309       49.74469       34.46671
H         54.52765       52.03366       34.29051
H         55.87777       52.10043       35.47027
N         53.07973       51.65525       37.11264
C         52.23979       52.31114       38.11327
C         52.63310       51.82351       39.49901
O         53.30852       50.80717       39.61203
C         50.73803       52.06083       37.80773
C         50.35215       52.57237       36.41241
O         49.93949       52.71534       38.75700
H         53.03001       50.62996       37.03511
H         52.41316       53.40954       38.10243
H         50.55506       50.96337       37.85678
H         49.01443       52.37261       38.64302
H         50.94234       52.06369       35.62293
H         49.27659       52.36747       36.21910
H         50.51799       53.66906       36.34617
N         52.25529       52.52203       40.60665
C         52.55102       52.09577       41.97449
C         51.26626       51.68642       42.70493
O         51.34767       51.20733       43.82460
C         53.36590       53.19191       42.73861
C         52.55028       54.49696       42.95817
C         54.69026       53.47190       41.99936
C         53.27839       55.55268       43.79700
H         51.71564       53.39049       40.46946
H         53.17858       51.17721       41.95272
H         53.62232       52.77876       43.73962
H         51.61879       54.24364       43.50253
H         52.27350       54.95992       41.98852
H         55.34083       54.15713       42.57992
H         55.26055       52.52971       41.85972
H         54.50076       53.92603       41.00302
H         53.56598       55.13598       44.78531
H         54.18187       55.93305       43.27858
H         52.60441       56.42015       43.96254
N         50.04585       51.84503       42.11070
C         48.75464       51.46835       42.67001
C         48.03595       50.57457       41.66297
O         48.01587       50.89605       40.48472
C         47.93221       52.73964       43.00836
C         47.81299       53.76016       41.86513
O         48.46274       53.37237       44.14708
H         49.99752       52.27835       41.18670
H         48.86655       50.91160       43.62655
H         46.90876       52.40247       43.28108
H         49.40695       53.60667       43.95699
H         47.17496       54.60694       42.19201
H         48.80938       54.17604       41.60108
H         47.35804       53.30534       40.96333
N         47.44842       49.40931       42.05874
C         46.91178       48.43260       41.10801
C         45.82172       48.97761       40.17409
O         45.30122       50.06362       40.38932
C         46.42582       47.15573       41.84839
C         45.17901       47.39103       42.71059
O         47.46640       46.65969       42.65062
H         47.45798       49.17970       43.06310
H         47.76614       48.13872       40.45930
H         46.16313       46.39964       41.08663
H         47.28472       45.69579       42.80621
H         45.37027       48.14653       43.49937
H         44.33041       47.72964       42.08104
H         44.88059       46.43777       43.19778
N         45.47570       48.24382       39.07371
C         44.45949       48.60105       38.08118
C         44.48136       47.75100       36.77798
O         43.59457       47.95869       35.96224
C         43.05639       48.56364       38.73561
C         42.60975       47.15603       39.18636
C         41.20043       47.16390       39.81067
C         41.14172       47.89073       41.16716
N         39.77848       47.90573       41.69672
H         45.99895       47.39056       38.95675
H         44.64912       49.64555       37.75053
H         42.31011       48.95277       38.00853
H         43.06090       49.25574       39.59739
H         43.33386       46.71838       39.90692
H         42.57587       46.49724       38.29136
H         40.88203       46.11088       39.97452
H         40.48765       47.62918       39.09482
H         41.48379       48.94078       41.07070
H         41.81150       47.36946       41.88674
H         39.15299       48.44072       41.05079
H         39.41867       46.93086       41.81148
H         39.78004       48.37984       42.62900
N         45.45778       46.83529       36.46929
C         45.48751       46.05480       35.22943
C         44.30836       45.10908       35.15877
O         44.15596       44.27126       36.03724
C         46.82373       45.27555       35.12592
C         46.97134       44.35545       33.89476
C         46.73884       44.98577       32.53628
O         47.46789       46.01849       32.06700
O         45.87774       44.51541       31.81166
H         46.25201       46.70135       37.09367
H         45.46116       46.74996       34.36788
H         46.94746       44.63345       36.02691
H         47.65417       46.00758       35.13838
H         46.25062       43.51603       34.00764
H         47.99154       43.91466       33.91723
N         43.44718       45.18060       34.10478
C         42.31479       44.29607       33.92886
H         41.38428       44.89853       33.87953
H         42.43243       43.74009       32.97449
H         42.21867       43.55988       34.75372
H         43.60587       45.88907       33.37254
Ca        48.82953       47.28830       33.28523
O         47.67753       48.50881       30.36245
H         47.99901       48.82073       29.48003
H         46.71297       48.32904       30.22788
O         46.34972       48.82466       33.08920
H         45.75479       49.04874       33.84730
H         46.39119       49.65450       32.55313
O         49.91109       50.30163       31.74899
H         49.78373       50.97644       32.46237
H         50.17937       50.82771       30.95398

Ca 1.0



