%chk=apoCaM-CA-Ng.loop1.water1.frame846.chk
%nprocshared=20
%mem=10GB
%nosave
#b3lyp/svp scf=(tight,noincore,xqc) Test 
#IOP(5/87=12) Density=Current Pop=(MK,readradii) iop(6/33=2) iop(6/42=6)

apoCaM-CA-Ng.loop1.water1.frame846 

   0  1 
C         43.66715       86.32721       98.10257
C         42.60741       85.76082       97.20443
O         41.66239       85.15037       97.68128
H         44.65440       85.89760       97.82548
H         43.71039       87.42949       97.97199
H         43.45903       86.09374       99.16651
N         42.73299       85.92217       95.86413
C         41.80540       85.39855       94.86509
C         42.48913       84.28373       94.08844
O         43.62872       83.95848       94.39505
C         41.20045       86.55847       94.02170
C         42.09124       87.77785       93.91624
O         43.29953       87.72613       93.32723
O         41.73486       88.82309       94.43860
H         43.57386       86.41472       95.52399
H         40.94674       84.87640       95.34388
H         40.29474       86.90268       94.57131
H         40.84435       86.20572       93.03067
N         41.80523       83.56585       93.14893
C         42.29109       82.28963       92.63002
C         42.71247       82.40186       91.18072
O         42.12462       81.78265       90.30552
C         41.25296       81.17658       92.91264
C         40.97032       81.08329       94.42500
C         40.08977       79.88764       94.80381
C         39.85321       79.87502       96.32411
N         39.07948       78.70569       96.73704
H         40.85907       83.86734       92.86971
H         43.21264       81.96743       93.16474
H         41.67509       80.20855       92.56146
H         40.30391       81.36772       92.36466
H         40.47551       82.02064       94.76210
H         41.93690       80.97840       94.96518
H         40.60616       78.94958       94.50340
H         39.11342       79.94581       94.27525
H         39.30975       80.80029       96.62074
H         40.83204       79.86224       96.85423
H         39.60295       77.83074       96.50380
H         38.93447       78.74355       97.77236
H         38.14764       78.70110       96.26326
N         43.83677       83.11788       90.89914
C         44.48607       83.17999       89.59350
C         45.85338       83.84410       89.72722
O         45.91515       84.91972       90.30435
C         43.63113       83.81572       88.48092
C         43.09499       85.21456       88.61255
O         42.50829       85.67971       87.64946
O         43.15795       85.97551       89.71699
H         44.31401       83.56380       91.69756
H         44.64085       82.14783       89.25308
H         42.75328       83.16536       88.28876
H         44.25636       83.79479       87.56105
N         47.01708       83.30530       89.24660
C         47.14733       82.14377       88.37645
C         46.74315       80.82816       88.99640
O         47.29748       80.44777       90.01746
H         47.88954       83.82502       89.43369
H         48.21648       82.04210       88.08659
H         46.57505       82.33452       87.44384
N         45.79885       80.05867       88.37794
C         45.37063       78.74217       88.84136
C         45.70870       77.71977       87.75265
O         45.98189       78.12465       86.62871
C         43.85303       78.83793       89.13440
C         43.20552       77.70658       89.88868
O         42.00598       77.75584       90.10875
O         43.91615       76.68427       90.39263
H         45.36223       80.42099       87.51488
H         45.92334       78.48277       89.76990
H         43.31901       78.99137       88.17033
H         43.68481       79.73897       89.76156
N         45.77625       76.38026       88.00799
C         46.14534       75.41058       86.98629
C         47.58583       75.54229       86.51503
O         47.95495       74.83071       85.59343
H         45.58001       76.02199       88.94827
H         45.45155       75.52059       86.12513
H         46.02728       74.38140       87.39054
N         48.46505       76.39225       87.12223
C         49.86340       76.54506       86.73442
C         50.16151       78.00366       86.39654
O         49.27594       78.84180       86.47705
C         50.77818       76.00046       87.86873
C         50.51347       76.62599       89.24369
O         50.59929       74.61050       87.98115
H         48.15211       76.94968       87.92607
H         50.09187       75.95669       85.81867
H         51.84241       76.21705       87.61811
H         51.35994       74.17191       87.51617
H         49.50455       76.35471       89.61648
H         51.25475       76.23805       89.97395
H         50.58790       77.72857       89.21056
N         51.42138       78.36424       86.01221
C         51.82453       79.73594       85.70328
C         52.41878       79.78148       84.30511
O         51.97916       80.59487       83.50011
C         52.85746       80.26047       86.74683
C         52.34206       80.02190       88.18787
C         53.12673       81.76165       86.49937
C         53.31540       80.45176       89.28486
H         52.14003       77.63200       85.97477
H         50.94546       80.41750       85.75401
H         53.80975       79.69707       86.63217
H         52.20290       78.93304       88.32017
H         51.36518       80.53091       88.34246
H         53.90000       82.15501       87.18796
H         53.50118       81.93663       85.47003
H         52.19322       82.35041       86.63952
H         54.29393       79.94394       89.15039
H         53.46084       81.55008       89.29141
H         52.89960       80.16234       90.27335
N         53.40956       78.91361       83.94049
C         54.03949       78.89624       82.62492
C         55.53650       78.63363       82.76274
O         55.99836       78.29956       83.85023
C         53.39260       77.79437       81.74373
C         51.88581       78.00759       81.56770
O         53.98681       77.78387       80.47120
H         53.70002       78.18822       84.61306
H         53.90041       79.88682       82.13441
H         53.55788       76.81349       82.25126
H         53.93721       76.85238       80.13165
H         51.68956       78.98854       81.08382
H         51.46716       77.20419       80.92618
H         51.36023       77.96746       82.54379
N         56.36425       78.77967       81.69405
C         57.79266       78.50345       81.73620
C         58.53169       79.81924       81.76701
O         59.23106       80.08176       82.73368
C         58.19854       77.58184       80.54815
C         59.70905       77.31521       80.50921
O         57.79806       78.14341       79.32333
H         55.97144       79.15675       80.81670
H         58.05942       77.96565       82.67554
H         57.66288       76.61453       80.69011
H         57.81821       77.41883       78.64492
H         60.27043       78.26103       80.34832
H         60.04663       76.84503       81.45546
H         59.94816       76.62992       79.66768
N         58.42221       80.69299       80.73236
C         59.10602       81.97524       80.69265
C         58.13525       83.07477       80.30534
O         57.03564       82.78820       79.85496
C         60.29570       81.88746       79.70892
C         59.87683       81.42554       78.29981
C         61.07711       81.24095       77.36975
C         60.61061       80.69355       76.01199
N         61.74187       80.46922       75.11511
H         57.84528       80.43036       79.92474
H         59.51524       82.22164       81.69719
H         61.01460       81.14207       80.11668
H         60.81709       82.86773       79.65317
H         59.16646       82.15746       77.85849
H         59.37885       80.43670       78.37061
H         61.78363       80.51263       77.82624
H         61.59977       82.21189       77.23152
H         59.90288       81.41279       75.54302
H         60.07591       79.72834       76.16525
H         62.24490       81.36873       74.93970
H         62.39764       79.77003       75.53380
H         61.38539       80.09459       74.20616
N         58.49572       84.37844       80.46054
C         57.66710       85.49255       80.01566
C         56.23705       85.43025       80.56282
O         55.33338       85.40409       79.73836
C         58.38576       86.83249       80.28934
C         57.60947       88.03411       79.73673
C         58.40864       89.29621       79.88700
O         58.72552       89.94130       78.90018
O         58.78168       89.72280       81.10874
H         59.41187       84.58049       80.88938
H         57.58971       85.41574       78.90671
H         59.37464       86.79070       79.78003
H         58.58092       86.97781       81.36841
H         56.64685       88.14789       80.27962
H         57.39172       87.86540       78.65917
N         55.89626       85.37498       81.88284
C         56.82679       85.33961       82.98687
H         57.41364       86.27291       83.03784
H         56.26056       85.25489       83.93968
H         57.49034       84.45537       82.90478
H         54.89208       85.32463       82.11830
Ca        43.79506       86.13174       91.84942
O         46.53779       84.77856       93.78412
H         46.48044       84.65539       94.76515
H         46.85396       83.90462       93.44223

Ca 1.0



