%chk=apoCaM-CA-Ng.loop1.water2.frame1067.chk
%nprocshared=20
%mem=10GB
%nosave
#b3lyp/svp scf=(tight,noincore,xqc) Test 
#IOP(5/87=12) Density=Current Pop=(MK,readradii) iop(6/33=2) iop(6/42=6)

apoCaM-CA-Ng.loop1.water2.frame1067 

   0  1 
C         12.84196       53.61234       29.75893
C         13.80687       52.51380       30.08031
O         14.44607       52.57457       31.12166
H         11.81935       53.19438       29.66589
H         12.84729       54.38442       30.55864
H         13.13566       54.09390       28.80209
N         13.98964       51.48543       29.20156
C         14.96820       50.42561       29.41844
C         16.10794       50.59062       28.44315
O         16.47770       49.66663       27.73126
C         14.31083       49.02783       29.41487
C         13.65946       48.60698       28.11909
O         13.06464       47.40168       28.04880
O         13.66881       49.32509       27.13168
H         13.45505       51.49630       28.32092
H         15.43300       50.54923       30.41035
H         13.54109       49.00613       30.21563
H         15.08749       48.27325       29.66875
N         16.72762       51.79799       28.39286
C         17.87975       52.08570       27.55787
C         19.03615       51.21117       27.99417
O         19.55068       50.49902       27.14312
C         18.17908       53.60586       27.53702
C         16.96777       54.32662       26.90708
C         17.09312       55.84684       26.85135
C         15.81357       56.42461       26.21993
N         15.85153       57.88236       26.16248
H         16.36397       52.54708       29.00018
H         17.64034       51.82276       26.50189
H         19.07848       53.80201       26.91321
H         18.37451       54.00545       28.55205
H         16.05037       54.10065       27.48911
H         16.82454       53.94049       25.87343
H         17.97999       56.13301       26.24592
H         17.21192       56.24540       27.88269
H         14.92816       56.11067       26.81905
H         15.69346       56.01982       25.18956
H         16.66255       58.19743       25.58328
H         14.96564       58.22411       25.72351
H         15.92404       58.27571       27.12855
N         19.46705       51.08544       29.28293
C         18.98465       51.81481       30.46232
C         18.20898       50.89931       31.40686
O         18.17667       49.69352       31.20433
C         20.16759       52.52205       31.15626
C         21.37187       51.62136       31.19576
O         21.28880       50.41227       31.77205
O         22.39762       51.94633       30.61984
H         20.18624       50.36200       29.43696
H         18.25746       52.59205       30.18933
H         19.87926       52.86944       32.17383
H         20.44559       53.41969       30.56235
N         17.43213       51.45319       32.38864
C         16.45372       50.69191       33.15412
C         17.01991       49.85943       34.27008
O         18.20136       49.94071       34.57505
H         17.40681       52.48053       32.47673
H         15.88814       50.03020       32.46873
H         15.72040       51.38895       33.61529
N         16.18009       48.99690       34.91211
C         16.56686       48.11868       36.01132
C         15.52856       48.20051       37.14227
O         14.46891       48.77221       36.92063
C         16.64365       46.68313       35.44460
C         17.71878       46.58251       34.39968
O         17.43600       46.28193       33.25131
O         19.00271       46.82302       34.73044
H         15.21600       48.91053       34.55010
H         17.56089       48.42091       36.40160
H         15.65765       46.40990       35.00705
H         16.87503       45.92820       36.20981
N         15.70930       47.65230       38.38385
C         16.95103       47.07099       38.86666
C         18.01065       48.12631       39.04410
O         17.71325       49.30776       38.94016
H         14.92400       47.69024       39.05275
H         17.29890       46.26752       38.20311
H         16.78814       46.60745       39.86366
N         19.29014       47.75895       39.32878
C         20.35550       48.72854       39.57159
C         20.50187       49.69501       38.39842
O         20.17312       49.33006       37.27718
C         21.66780       47.98840       39.91612
C         22.76770       48.93582       40.38590
O         22.10736       47.25035       38.80419
H         19.50185       46.75055       39.38897
H         20.04810       49.31888       40.46362
H         21.43755       47.29860       40.76329
H         22.65746       46.49983       39.15071
H         23.05424       49.63378       39.57549
H         22.42270       49.51662       41.26690
H         23.65584       48.34472       40.69001
N         20.88664       50.98987       38.61886
C         20.85882       52.03625       37.59754
C         21.82515       51.63602       36.45956
O         21.64140       52.38653       35.32757
C         19.36672       52.33122       37.15888
C         18.50406       52.58789       38.42913
C         19.23179       53.55690       36.21263
C         17.00707       52.76358       38.15467
H         21.15978       51.26907       39.57312
H         21.23110       52.98320       38.04861
H         18.95550       51.44173       36.63846
H         18.88359       53.48058       38.97239
H         18.58493       51.71917       39.11125
H         19.69558       53.43120       35.22332
H         18.17801       53.74596       35.93993
H         19.64654       54.46782       36.69510
H         16.79357       53.68418       37.57716
H         16.60894       51.88060       37.61057
H         16.46896       52.86083       39.12016
N         23.24420       51.66272       36.85368
C         24.20645       51.57487       35.71652
C         25.35086       50.63296       36.03840
O         26.23359       50.48287       35.20379
C         24.76218       52.97092       35.26364
C         25.62370       53.68530       36.31247
O         23.72480       53.83547       34.88131
H         23.45500       52.47017       37.47928
H         23.71680       51.11479       34.83279
H         25.43696       52.80729       34.38771
H         23.54501       53.67375       33.91754
H         25.04311       53.94733       37.21845
H         26.49143       53.05775       36.60281
H         26.01424       54.63228       35.88115
N         25.40542       49.95584       37.21964
C         26.51833       49.09292       37.58579
C         26.65920       47.94658       36.59745
O         25.82165       47.05536       36.58236
C         26.32115       48.57263       39.03463
C         27.39819       47.58487       39.47995
O         26.33248       49.65727       39.93065
H         24.64125       50.07564       37.89530
H         27.44483       49.70898       37.56459
H         25.35068       48.02502       39.09398
H         25.40470       49.99519       40.01464
H         27.39984       46.68154       38.83472
H         28.39855       48.06282       39.45020
H         27.18208       47.25644       40.51953
N         27.71755       47.92500       35.73477
C         28.02406       46.83516       34.81870
C         26.83151       46.50548       33.92909
O         26.25086       45.43628       34.06543
C         28.54606       45.61792       35.61195
C         29.26183       44.63266       34.67280
C         29.76599       43.39708       35.41860
C         30.58353       42.50363       34.47535
N         31.00755       41.27832       35.14886
H         28.36514       48.72802       35.73141
H         28.87274       47.16590       34.17720
H         27.71839       45.13189       36.17254
H         29.30139       45.96805       36.35092
H         30.12944       45.15955       34.21442
H         28.58260       44.30367       33.85783
H         28.89035       42.83562       35.81094
H         30.41003       43.70291       36.27227
H         31.48155       43.06392       34.12827
H         29.97365       42.23583       33.58407
H         31.58757       40.71062       34.48964
H         31.57842       41.50775       35.99443
H         30.16839       40.71977       35.42778
N         26.41849       47.39256       32.98366
C         25.23887       47.17905       32.14669
C         24.28239       48.35877       32.27093
O         23.18060       48.12158       32.74497
C         25.60249       46.82831       30.68530
C         26.26489       45.44317       30.59505
C         26.60494       45.09915       29.17377
O         26.09551       44.12887       28.63566
O         27.48714       45.85266       28.49007
H         26.97617       48.24782       32.86642
H         24.67104       46.29273       32.51384
H         26.26616       47.57953       30.22408
H         24.66458       46.78636       30.08748
H         25.56111       44.68007       30.99907
H         27.19649       45.41488       31.19798
N         24.54990       49.64927       31.90444
C         25.75931       50.17396       31.30584
H         26.55038       49.43330       31.14914
H         25.50920       50.61626       30.31842
H         26.17013       50.97136       31.95856
H         23.81028       50.34560       32.06539
Ca        21.38442       50.68421       33.92187
O         20.31841       47.37125       32.03794
H         20.16677       47.81248       31.16505
H         19.94167       46.46278       31.92482
O         22.90229       47.71487       35.68143
H         23.67505       48.24436       35.36262
H         22.48872       48.28534       36.37514

Ca 1.0



