%chk=apoCaM-CA-Ng.loop1.water2.frame1280.chk
%nprocshared=20
%mem=10GB
%nosave
#b3lyp/svp scf=(tight,noincore,xqc) Test 
#IOP(5/87=12) Density=Current Pop=(MK,readradii) iop(6/33=2) iop(6/42=6)

apoCaM-CA-Ng.loop1.water2.frame1280 

   0  1 
C         38.10659       23.97999       22.30362
C         39.37809       24.74508       22.52980
O         39.29637       25.91322       22.88286
H         37.51973       24.46362       21.49342
H         38.30852       22.92809       22.01373
H         37.50355       23.98320       23.23574
N         40.59500       24.16152       22.31373
C         41.86068       24.87567       22.48073
C         42.48799       25.11309       21.12067
O         43.65285       24.81474       20.89381
C         42.79437       24.14375       23.47194
C         43.25778       22.78732       22.99510
O         42.46170       21.88137       22.80962
O         44.56995       22.56396       22.78900
H         40.61393       23.19442       21.96117
H         41.66486       25.88638       22.90097
H         42.27854       24.02772       24.44894
H         43.69018       24.78180       23.63386
N         41.71214       25.64571       20.14541
C         42.15788       25.88910       18.78346
C         43.00138       27.15013       18.73059
O         44.13348       27.04378       18.28173
C         40.94601       25.87175       17.82089
C         40.29011       24.47455       17.88785
C         38.92882       24.39831       17.20260
C         38.31869       23.00728       17.44866
N         36.95611       22.92330       16.93246
H         40.72077       25.81359       20.37132
H         42.79078       25.03545       18.44461
H         41.26511       26.07725       16.77554
H         40.20783       26.64460       18.10705
H         40.10710       24.20375       18.94784
H         40.98529       23.71731       17.46089
H         39.02305       24.60101       16.11411
H         38.26414       25.16452       17.65857
H         38.29077       22.80266       18.54393
H         38.95351       22.22902       16.96892
H         36.57732       21.96974       17.13522
H         36.35250       23.63123       17.41115
H         36.95026       23.08566       15.90040
N         42.60692       28.37409       19.19741
C         41.32758       28.71582       19.81880
C         41.52126       29.03046       21.29797
O         42.63173       28.92709       21.79986
C         40.63503       29.82496       19.00297
C         41.51327       31.01297       18.77450
O         41.94472       31.75392       19.80934
O         41.85890       31.29195       17.63835
H         43.30467       29.13332       19.14043
H         40.62557       27.87597       19.81263
H         39.68586       30.14769       19.47957
H         40.37491       29.39412       18.01007
N         40.44729       29.31996       22.08254
C         40.50634       29.42066       23.53438
C         41.33992       30.56384       24.07337
O         41.93630       31.31131       23.31474
H         39.51498       29.38348       21.64625
H         40.88771       28.46469       23.95209
H         39.47041       29.56714       23.90884
N         41.34265       30.77491       25.42502
C         42.01665       31.89007       26.10130
C         41.47225       32.07202       27.52977
O         40.94638       31.12499       28.09442
C         43.54281       31.62514       26.22391
C         44.27765       31.56948       24.91969
O         44.92706       30.44647       24.55858
O         44.32484       32.55258       24.19926
H         40.75335       30.13969       25.98111
H         41.78854       32.81894       25.53971
H         43.68938       30.66636       26.76809
H         44.03557       32.41181       26.82866
N         41.61247       33.24042       28.22961
C         42.11709       34.47896       27.66615
C         41.06016       35.18620       26.85879
O         39.89869       34.80775       26.90932
H         41.30797       33.26120       29.21600
H         43.02762       34.30150       27.06712
H         42.39811       35.17738       28.48394
N         41.40182       36.26760       26.11113
C         40.43332       37.08705       25.38557
C         39.58893       36.33045       24.35502
O         38.64829       36.93693       23.86094
C         41.12894       38.32400       24.74966
C         42.20890       37.95402       23.71870
O         41.71236       39.09095       25.77208
H         42.39454       36.54521       26.11653
H         39.70951       37.46980       26.13952
H         40.34344       38.93217       24.24262
H         41.80917       40.01583       25.42319
H         43.03337       37.37428       24.17788
H         41.77279       37.36716       22.88421
H         42.66437       38.87806       23.30386
N         39.83896       35.04123       23.96813
C         38.99802       34.33734       22.99932
C         39.74241       34.31023       21.68395
O         40.78887       33.68618       21.59036
C         38.61313       32.90861       23.49563
C         37.78894       32.97535       24.80559
C         37.84130       32.12786       22.40852
C         37.56709       31.61114       25.46854
H         40.68109       34.56022       24.31230
H         38.04851       34.89292       22.83937
H         39.55380       32.37179       23.70292
H         36.80714       33.45963       24.61363
H         38.33167       33.59034       25.54275
H         38.43967       32.04131       21.47792
H         37.62829       31.08862       22.72839
H         36.88216       32.63451       22.17023
H         37.01265       31.74846       26.42067
H         36.97178       30.92768       24.83174
H         38.54171       31.13683       25.70352
N         39.25117       35.02145       20.63127
C         39.89042       35.10759       19.32644
C         40.38482       36.52634       19.04120
O         40.85383       36.75825       17.93499
C         38.91915       34.61237       18.22305
C         37.64878       35.46149       18.09096
O         38.54612       33.28231       18.47698
H         38.38833       35.56573       20.77223
H         40.76900       34.44036       19.28409
H         39.44050       34.67009       17.23711
H         39.26355       32.70453       18.10731
H         37.02985       35.41009       19.00967
H         37.90340       36.52168       17.88207
H         37.03442       35.07978       17.24863
N         40.31827       37.52670       19.97235
C         40.71613       38.90766       19.69392
C         42.19315       38.97846       19.32291
O         43.02472       38.66132       20.16244
C         40.40848       39.80626       20.92035
C         40.75062       41.27655       20.68274
O         39.04105       39.71657       21.24034
H         39.94595       37.31199       20.90889
H         40.09686       39.27067       18.84445
H         41.02820       39.46670       21.77799
H         38.96129       39.19905       22.08473
H         40.51586       41.86148       21.59804
H         41.83154       41.40176       20.46292
H         40.15455       41.67765       19.83681
N         42.57499       39.36893       18.06370
C         43.95132       39.37551       17.54889
C         44.76365       38.22338       18.11257
O         45.80650       38.41228       18.72326
C         44.59517       40.76780       17.68533
C         43.85934       41.78901       16.79697
C         44.57163       43.14522       16.76459
C         43.90152       44.08455       15.74908
N         44.60445       45.36430       15.67166
H         41.83196       39.59329       17.38488
H         43.90519       39.15652       16.45808
H         45.64261       40.69831       17.31749
H         44.61152       41.09539       18.74774
H         42.81067       41.92157       17.14281
H         43.84078       41.39186       15.75743
H         45.62798       42.99168       16.45292
H         44.55836       43.60188       17.77793
H         42.84118       44.25976       16.03679
H         43.91517       43.60734       14.74273
H         44.13971       45.96684       14.95425
H         44.57169       45.84899       16.59736
H         45.59936       45.21106       15.38660
N         44.24622       36.97770       17.97307
C         44.76224       35.77584       18.60438
C         43.63647       34.75067       18.59577
O         43.15882       34.45423       19.67850
C         46.08500       35.27127       17.98074
C         46.55881       33.94743       18.62143
C         47.06461       34.15412       20.02427
O         46.45486       33.60256       21.09393
O         48.06372       34.83179       20.20161
H         43.33933       36.92014       17.48780
H         44.96171       36.01605       19.67437
H         46.88254       36.03937       18.07162
H         45.95194       35.11668       16.89933
H         47.39471       33.52530       18.02329
H         45.73780       33.19873       18.59757
N         43.07417       34.21302       17.47079
C         43.52468       34.39804       16.10694
H         44.50661       33.91095       15.95813
H         42.82483       33.88497       15.41374
H         43.55884       35.46728       15.82371
H         42.24507       33.62077       17.59441
Ca        44.49276       32.48883       21.07862
O         45.48448       29.85106       20.71227
H         44.92999       29.85758       21.53153
H         46.41333       29.85389       21.05179
O         43.27046       35.03980       22.70006
H         43.71418       35.73931       22.15757
H         43.72578       35.08155       23.57796

Ca 1.0



