%chk=apoCaM-CA-Ng.loop2.water2.frame870.chk
%nprocshared=20
%mem=10GB
%nosave
#b3lyp/svp scf=(tight,noincore,xqc) Test 
#IOP(5/87=12) Density=Current Pop=(MK,readradii) iop(6/33=2) iop(6/42=6)

apoCaM-CA-Ng.loop2.water2.frame870 

   -2  1 
C         57.14310       14.88647       -2.45281
C         56.09863       15.10279       -3.50547
O         55.86010       14.20789       -4.30448
H         57.94372       15.64754       -2.55471
H         56.67632       14.97712       -1.44896
H         57.59145       13.87401       -2.54445
N         55.41529       16.28087       -3.55294
C         54.34509       16.53793       -4.51007
C         53.24777       15.51083       -4.31162
O         52.91011       14.81810       -5.26077
C         53.80657       17.97391       -4.34261
C         52.75463       18.30198       -5.36657
O         51.51477       18.64960       -4.97322
O         53.02187       18.26606       -6.55754
H         55.65655       17.01128       -2.86454
H         54.75826       16.45329       -5.54157
H         54.64452       18.69395       -4.46819
H         53.38835       18.10768       -3.32177
N         52.69210       15.32720       -3.07772
C         51.72658       14.27215       -2.77809
C         51.32320       14.31812       -1.30183
O         52.22306       14.41799       -0.47807
C         52.33151       12.88182       -3.03061
H         53.00264       15.94805       -2.31439
H         50.87701       14.39639       -3.46610
H         51.57634       12.10161       -2.79174
H         52.61883       12.73744       -4.08960
H         53.22800       12.72069       -2.39498
N         50.04550       14.17085       -0.83351
C         48.84616       13.93507       -1.63182
C         47.79260       14.99340       -1.35790
O         47.94942       15.79400       -0.44621
C         48.32690       12.49109       -1.42937
C         47.99984       12.11251       -0.00917
O         48.96578       12.06722        0.92801
O         46.86888       11.76294        0.28240
H         49.92694       14.18713        0.19010
H         49.05989       14.01185       -2.70501
H         49.10519       11.78197       -1.78612
H         47.42711       12.34239       -2.06503
N         46.72431       15.10394       -2.19600
C         45.73092       16.16008       -2.10393
C         44.34101       15.59481       -2.26340
O         43.72985       15.87101       -3.28605
H         46.66451       14.46458       -3.00409
H         45.91303       16.84274       -2.96345
H         45.82309       16.76663       -1.17942
N         43.74714       14.77244       -1.35531
C         44.29657       14.40486       -0.05655
C         44.24828       15.61093        0.87459
O         43.20089       16.23762        0.96313
C         43.44844       13.25115        0.53248
C         44.05152       12.59596        1.74899
N         43.39792       11.58669        2.36536
O         45.14129       12.94693        2.16649
H         42.82383       14.38757       -1.61381
H         45.32600       14.00831       -0.18827
H         43.35907       12.44916       -0.23206
H         42.42807       13.62231        0.77151
H         42.48252       11.26511        2.02046
H         43.80830       11.12460        3.18851
N         45.32122       15.96623        1.63489
C         45.32540       17.12038        2.52551
C         45.29016       16.74528        3.99506
O         45.40270       17.64606        4.81421
H         46.16735       15.38184        1.60485
H         44.45250       17.78325        2.34384
H         46.24006       17.71382        2.30994
N         45.09220       15.46033        4.41207
C         45.02781       15.05957        5.81524
C         46.12311       14.01088        6.11011
O         47.23817       14.20695        5.29893
C         43.62715       14.46059        6.11605
C         42.52539       15.51020        5.96661
O         43.33851       13.40266        5.23677
H         44.96458       14.72340        3.71330
H         45.20763       15.93445        6.47833
H         43.57574       14.09576        7.16644
H         43.93629       12.65192        5.47757
H         41.53895       15.04972        6.19119
H         42.69319       16.34787        6.67513
H         42.49476       15.90785        4.92974
N         46.50905       13.97552        7.52543
C         47.51834       12.94438        7.86572
C         46.86370       11.56898        8.00282
O         45.92703       11.45208        8.78070
C         48.22115       13.36466        9.19117
C         49.32930       12.37335        9.64432
C         48.78539       14.79726        9.08543
C         50.52079       12.24488        8.68829
H         45.67328       13.90105        8.15016
H         48.30176       12.91391        7.08007
H         47.45437       13.38168        9.99808
H         48.88725       11.36502        9.79097
H         49.71917       12.70778       10.63073
H         49.52385       14.88280        8.26166
H         47.97312       15.52805        8.88701
H         49.26863       15.09414       10.04016
H         51.25400       11.52539        9.10900
H         50.19831       11.86468        7.70048
H         51.04146       13.21587        8.55937
N         47.32004       10.48085        7.30222
C         46.67909        9.16048        7.38240
C         47.56240        8.10600        8.02435
O         47.01527        7.08214        8.42025
C         46.25559        8.65232        5.98793
C         45.56516        9.71528        5.20083
O         44.55325       10.24646        5.62748
O         46.15635       10.17089        4.07948
H         48.13523       10.59688        6.68937
H         45.76704        9.24433        8.01331
H         45.60402        7.75590        6.08340
H         47.16702        8.36215        5.42040
N         48.92030        8.22930        8.12377
C         49.73991        7.22151        8.79145
C         51.23588        7.46984        8.56253
O         51.68887        8.56166        8.89118
C         49.44393        7.27079       10.31023
C         50.27602        6.29193       11.10043
C         51.24804        6.76670       11.99667
C         50.09442        4.90653       10.95387
C         52.03259        5.87128       12.72610
C         50.88052        4.01270       11.68836
C         51.84990        4.49508       12.57233
H         49.38744        9.04871        7.70783
H         49.45663        6.23164        8.38690
H         48.37316        7.07156       10.52332
H         49.65474        8.30766       10.65465
H         51.40547        7.83058       12.12423
H         49.34580        4.51970       10.27349
H         52.78289        6.24659       13.40951
H         50.73908        2.94604       11.57252
H         52.45908        3.80371       13.13940
N         52.09261        6.51217        8.06657
C         53.54523        6.67234        8.00324
C         54.07584        7.74407        7.06452
O         55.28693        7.90496        7.00701
C         54.05207        5.30242        7.53704
C         53.01281        4.37518        8.12012
C         51.73221        5.13053        7.79034
H         53.89453        6.87536        9.04120
H         53.95514        5.22561        6.42835
H         55.10447        5.08164        7.81665
H         53.04484        3.33360        7.73641
H         53.14267        4.35853        9.22755
H         51.48771        5.03516        6.70908
H         50.92519        4.71299        8.41560
N         53.25152        8.49768        6.28286
C         53.74678        9.50599        5.34558
C         54.52078       10.64781        6.00104
O         55.06612       11.45913        5.26361
C         52.59136       10.06460        4.48560
C         51.50286       10.78841        5.29662
C         50.40877       11.23999        4.38087
O         50.62745       12.07541        3.51915
O         49.18546       10.69554        4.48507
H         52.24422        8.30291        6.30877
H         54.44908        8.99301        4.65105
H         52.12188        9.21442        3.94216
H         53.00617       10.76253        3.72473
H         51.91912       11.66387        5.83939
H         51.06092       10.09969        6.04467
N         54.63663       10.78739        7.35249
C         55.42515       11.84823        7.94115
H         56.48169       11.76300        7.60526
H         55.02015       12.83727        7.64047
H         55.40152       11.77009        9.04855
H         54.16872       10.13350        7.99386
Ca        46.91099       12.27717        4.19549
O         48.07301        9.08982        2.08061
H         48.08515        8.44050        2.82825
H         49.00832        9.11350        1.75714
O         48.59864       14.67642        2.80314
H         48.20562       14.33728        1.96160
H         49.57255       14.54003        2.69445

Ca 1.0



