%chk=apoCaM-CA-Ng.loop4.water4.frame788.chk
%nprocshared=20
%mem=10GB
%nosave
#b3lyp/svp scf=(tight,noincore,xqc) Test 
#IOP(5/87=12) Density=Current Pop=(MK,readradii) iop(6/33=2) iop(6/42=6)

apoCaM-CA-Ng.loop4.water4.frame788 

   -3  1 
C         -7.23296      -10.85319       -4.36627
C         -8.25519      -11.66173       -5.11203
O         -8.35336      -11.55260       -6.32437
H         -6.64185      -10.21472       -5.05454
H         -7.74361      -10.20232       -3.62477
H         -6.54112      -11.53563       -3.82712
N         -9.05970      -12.51101       -4.42105
C        -10.09523      -13.36124       -5.00323
C         -9.50036      -14.36846       -5.97655
O        -10.08973      -14.62053       -7.02024
C        -11.23026      -12.52920       -5.65627
C        -11.60736      -11.36056       -4.79616
O        -11.97222      -11.52046       -3.50945
O        -11.44609      -10.23042       -5.23099
H         -8.93351      -12.56758       -3.39777
H        -10.53628      -13.93248       -4.15623
H        -12.11067      -13.17492       -5.85903
H        -10.87521      -12.12207       -6.63047
N         -8.29040      -14.94638       -5.72431
C         -7.67565      -15.88044       -6.66265
C         -8.40476      -17.22134       -6.60484
O         -8.79609      -17.59856       -5.50828
C         -6.14343      -16.07296       -6.41182
C         -5.81885      -16.74929       -5.05053
C         -5.40816      -14.72605       -6.57538
C         -4.33783      -17.09513       -4.87955
H         -7.77632      -14.66567       -4.87731
H         -7.74895      -15.41639       -7.66454
H         -5.77251      -16.74595       -7.21636
H         -6.36119      -17.71398       -4.98346
H         -6.14002      -16.10866       -4.20305
H         -4.30872      -14.85816       -6.53422
H         -5.63677      -14.28300       -7.56766
H         -5.70640      -14.00344       -5.78707
H         -4.19515      -17.63385       -3.91897
H         -4.00054      -17.75652       -5.70634
H         -3.70507      -16.18616       -4.85076
N         -8.57030      -18.06767       -7.66561
C         -8.20017      -17.82410       -9.05866
C         -9.43993      -18.05460       -9.93208
O        -10.40078      -18.64536       -9.45372
C         -7.05018      -18.80700       -9.40295
C         -6.31645      -18.61639      -10.70731
O         -5.33505      -19.47919      -11.03107
O         -6.54163      -17.67581      -11.44706
H         -8.99017      -18.98815       -7.45495
H         -7.84051      -16.79195       -9.19729
H         -7.45007      -19.84330       -9.36136
H         -6.27070      -18.71572       -8.61553
N         -9.50719      -17.62097      -11.22022
C        -10.65068      -17.92212      -12.06728
C        -10.46608      -17.33170      -13.44081
O        -10.37899      -18.07258      -14.40981
H         -8.73759      -17.06531      -11.60959
H        -11.58223      -17.51415      -11.61679
H        -10.75059      -19.02688      -12.14983
N        -10.40099      -15.98190      -13.58976
C        -10.18218      -15.32395      -14.87216
C         -8.84057      -15.70388      -15.47671
O         -8.80425      -16.03525      -16.65432
C        -10.36271      -13.79022      -14.75461
C         -9.54620      -13.10285      -13.68789
O        -10.17461      -12.46535      -12.68194
O         -8.32915      -13.08372      -13.73318
H        -10.51868      -15.40082      -12.74549
H        -10.97420      -15.64402      -15.58813
H        -11.43321      -13.60911      -14.51343
H        -10.16287      -13.31905      -15.74234
N         -7.69949      -15.71725      -14.73117
C         -6.40343      -16.05587      -15.29464
C         -5.82196      -14.95800      -16.16761
O         -4.74031      -15.17152      -16.69483
H         -7.75336      -15.53039      -13.71928
H         -6.48206      -17.01224      -15.85754
H         -5.67941      -16.21372      -14.46589
N         -6.43387      -13.74094      -16.32005
C         -5.88367      -12.62133      -17.07995
C         -4.57741      -12.08599      -16.50185
O         -3.98931      -11.21767      -17.13184
C         -5.77920      -12.96831      -18.58874
C         -7.15551      -13.28809      -19.21401
C         -8.11283      -12.11104      -19.26798
N         -9.36694      -12.28528      -19.74238
O         -7.76600      -10.99777      -18.90063
H         -7.33635      -13.56791      -15.86764
H         -6.58063      -11.76572      -16.98883
H         -5.10581      -13.83832      -18.72988
H         -5.33603      -12.11888      -19.15323
H         -7.62555      -14.11951      -18.64672
H         -7.00030      -13.63324      -20.25853
H         -9.68529      -13.21125      -20.06172
H        -10.02400      -11.49143      -19.78393
N         -4.10149      -12.48354      -15.28209
C         -2.87718      -11.94874      -14.68796
C         -3.13603      -11.18331      -13.39383
O         -2.18604      -10.59430      -12.89429
C         -1.84568      -13.08751      -14.43762
C         -2.37104      -14.16454      -13.46710
C         -1.41323      -13.73743      -15.75751
H         -4.63186      -13.17242      -14.73563
H         -2.41000      -11.21279      -15.37882
H         -0.93535      -12.63766      -13.98180
H         -1.57989      -14.91787      -13.26912
H         -2.66025      -13.71277      -12.49495
H         -3.24755      -14.70126      -13.88596
H         -0.97600      -12.97204      -16.43311
H         -0.64024      -14.51220      -15.56659
H         -2.27431      -14.21546      -16.26802
N         -4.35110      -11.17099      -12.76468
C         -4.56840      -10.50671      -11.48118
C         -5.76024       -9.55786      -11.55350
O         -6.49346       -9.58592      -12.53418
C         -4.74210      -11.61277      -10.42135
C         -4.84642      -11.11537       -9.00622
N         -5.92164      -11.42454       -8.24784
O         -3.93857      -10.45094       -8.52859
H         -5.13840      -11.70626      -13.15678
H         -3.67491       -9.90119      -11.21225
H         -3.84763      -12.27259      -10.46519
H         -5.62894      -12.23006      -10.68379
H         -6.68968      -11.99922       -8.62521
H         -5.97691      -11.09951       -7.27304
N         -5.97370       -8.63368      -10.56990
C         -7.06823       -7.66093      -10.63386
C         -6.82387       -6.48068       -9.69013
O         -5.92111       -6.54805       -8.86604
C         -8.39460       -8.37175      -10.25661
C         -9.63251       -7.59882      -10.63537
C        -10.44776       -6.99744       -9.66057
C         -9.99593       -7.50339      -11.98842
C        -11.60112       -6.30047      -10.04065
C        -11.15678       -6.82322      -12.36366
C        -11.96126       -6.21606      -11.39477
O        -13.07535       -5.55927      -11.77680
H         -5.27991       -8.58010       -9.81142
H         -7.08688       -7.25522      -11.66981
H         -8.36928       -8.57751       -9.16234
H         -8.47687       -9.36032      -10.75736
H        -10.18634       -7.05613       -8.61128
H         -9.38873       -7.97528      -12.75119
H        -12.21627       -5.83066       -9.28340
H        -11.43231       -6.77155      -13.40967
H        -13.66138       -5.12359      -11.14190
N         -7.58958       -5.35152       -9.76109
C         -7.43895       -4.23862       -8.82963
C         -8.76215       -4.00374       -8.13195
O         -9.66465       -3.48222       -8.77400
C         -7.00606       -2.94849       -9.55765
C         -5.62409       -3.07187      -10.20758
C         -5.24073       -1.78413      -10.88086
O         -4.14908       -1.10841      -10.47437
O         -5.91391       -1.34474      -11.80008
H         -8.31228       -5.27735      -10.49272
H         -6.66128       -4.46421       -8.08155
H         -6.97005       -2.11640       -8.81833
H         -7.75779       -2.69125      -10.33787
H         -5.62388       -3.88647      -10.96266
H         -4.87432       -3.31201       -9.42270
N         -9.02434       -4.38784       -6.85040
C         -8.14639       -5.17678       -5.98457
C         -6.93513       -4.40412       -5.50759
O         -7.08742       -3.34291       -4.91901
C         -8.94568       -5.68197       -4.76236
C         -9.98865       -6.71130       -5.21768
C        -10.86690       -7.19551       -4.10733
O        -12.07867       -7.16407       -4.24461
O        -10.34589       -7.75628       -3.00153
H         -9.97462       -4.17797       -6.50450
H         -7.80622       -6.08263       -6.53566
H         -9.42549       -4.82359       -4.24207
H         -8.26195       -6.19059       -4.04585
H         -9.45036       -7.58865       -5.63993
H        -10.63682       -6.29735       -6.01940
N         -5.68899       -4.93193       -5.68835
C         -4.46920       -4.31272       -5.21531
H         -3.78634       -4.14328       -6.07360
H         -4.65469       -3.34443       -4.70711
H         -3.97126       -4.99767       -4.49555
H         -5.59108       -5.84145       -6.16469
Ca       -11.34302       -9.67637       -2.39204
O        -13.78378       -7.11601       -1.59517
H        -13.68033       -6.15235       -1.79744
H        -14.66634       -7.18334       -1.15137
O        -14.38101       -9.04969       -4.49479
H        -14.13244       -8.58915       -5.33559
H        -15.31363       -8.76543       -4.32346
O        -14.32339      -10.21462       -1.00188
H        -14.27593       -9.68038       -0.16939
H        -15.27920      -10.18848       -1.25927
O        -11.07978       -7.77075        0.04847
H        -10.18981       -7.56276       -0.33225
H        -10.92457       -8.56549        0.61806

Ca 1.0



