%chk=apoCaM-CA-Ng.loop2.water4.frame232.chk
%nprocshared=20
%mem=10GB
%nosave
#b3lyp/svp scf=(tight,noincore,xqc) Test 
#IOP(5/87=12) Density=Current Pop=(MK,readradii) iop(6/33=2) iop(6/42=6)

apoCaM-CA-Ng.loop2.water4.frame232 

   -2  1 
C         26.12478        7.65801       82.89605
C         26.36153        6.19119       82.65033
O         27.46804        5.81601       82.29234
H         25.08231        7.85203       83.23065
H         26.81252        8.02412       83.68647
H         26.30005        8.23300       81.96425
N         25.34865        5.30063       82.82865
C         25.47250        3.85595       82.64046
C         25.86311        3.49900       81.21405
O         25.24255        3.99041       80.28156
C         24.13108        3.16639       82.96628
C         23.71497        3.39897       84.39353
O         22.66499        3.96999       84.64188
O         24.49657        2.97407       85.40479
H         24.43609        5.67473       83.13136
H         26.23595        3.45431       83.34404
H         24.22797        2.06981       82.81178
H         23.34355        3.54781       82.27810
N         26.83442        2.56753       80.97888
C         27.19212        2.11961       79.63574
C         27.92685        3.21725       78.89202
O         28.96664        3.66367       79.35699
C         28.04855        0.85239       79.69465
H         27.28193        2.11108       81.78887
H         26.25997        1.83234       79.09795
H         28.27878        0.50355       78.66460
H         28.99679        1.03249       80.24199
H         27.48163        0.04701       80.21096
N         27.40885        3.71900       77.73786
C         27.96804        4.86025       77.01548
C         28.29461        4.55305       75.55216
O         28.72548        5.46149       74.85453
C         27.00009        6.04852       77.19882
C         25.58237        5.81528       76.74212
O         24.61451        6.64131       77.17741
O         25.28343        4.86968       76.03063
H         26.52539        3.31410       77.39740
H         28.92861        5.18236       77.47734
H         27.39079        6.97363       76.72496
H         26.95894        6.23276       78.29528
N         28.18287        3.29347       75.02948
C         28.56118        2.92568       73.66504
C         30.06135        2.95659       73.37076
O         30.43198        2.49969       72.30277
H         27.81016        2.53491       75.61712
H         28.01087        3.55134       72.93054
H         28.24877        1.86965       73.50932
N         30.96758        3.43089       74.27276
C         32.43432        3.42231       74.15429
C         33.04125        3.97871       75.44065
O         32.36473        4.65996       76.20239
C         33.01212        4.25456       72.97523
C         32.78120        3.66888       71.60685
N         32.11446        4.36476       70.65657
O         33.21903        2.55736       71.34653
H         30.58213        3.76462       75.15651
H         32.76106        2.36226       74.06436
H         34.11947        4.30614       73.07955
H         32.62320        5.29346       73.03844
H         31.74285        5.30519       70.85240
H         31.96812        3.96028       69.71953
N         34.32540        3.69283       75.77260
C         34.89034        4.13199       77.03210
C         35.08889        5.62864       77.10994
O         34.84827        6.35410       76.15454
H         34.89116        3.08671       75.15897
H         35.88524        3.65689       77.17082
H         34.23259        3.79506       77.86404
N         35.61449        6.13256       78.25316
C         36.04903        7.51283       78.41972
C         34.89434        8.50304       78.57067
O         35.01304        9.61397       78.07314
C         37.07754        7.61400       79.58535
C         36.51082        7.32823       80.98760
O         38.17878        6.77278       79.32390
H         35.81687        5.45349       79.00050
H         36.64209        7.80184       77.52145
H         37.47236        8.65288       79.60892
H         37.92878        5.83804       79.54935
H         37.32858        7.39263       81.73617
H         35.74770        8.07145       81.26053
H         36.05166        6.32257       81.05779
N         33.79353        8.19984       79.31999
C         32.73951        9.15715       79.67163
C         31.37391        8.69136       79.19578
O         30.92896        7.61350       79.56585
C         32.76575        9.35937       81.21821
C         33.94617       10.30137       81.56947
C         31.44467        9.92769       81.78669
C         34.33210       10.26706       83.04516
H         33.72595        7.25309       79.72312
H         32.92115       10.15124       79.20509
H         32.91212        8.35850       81.68464
H         33.69309       11.34044       81.26137
H         34.85094       10.02041       80.99881
H         31.49683       10.04620       82.88614
H         31.19861       10.90427       81.32066
H         30.60365        9.22523       81.60557
H         35.18634       10.95619       83.21148
H         33.49872       10.58395       83.70073
H         34.65018        9.23919       83.32208
N         30.62279        9.52810       78.42106
C         29.23387        9.28189       78.06196
C         28.85240       10.16880       76.89148
O         28.62823        9.62424       75.81799
C         28.32498        9.47917       79.30030
C         26.87257        9.64862       78.95277
O         25.94815        8.74220       79.29041
O         26.50270       10.67109       78.39780
H         31.04561       10.41545       78.10554
H         29.13606        8.23698       77.69496
H         28.61636       10.40355       79.84888
H         28.47203        8.62385       79.99422
N         28.76863       11.52924       77.00139
C         28.57714       12.36095       75.82088
C         27.91697       13.69804       76.14920
O         28.40598       14.38021       77.03918
C         29.95329       12.58912       75.18257
C         29.79982       13.17514       73.81049
C         29.63445       12.31861       72.70966
C         29.77923       14.56406       73.61905
C         29.45921       12.84620       71.43035
C         29.60089       15.08870       72.33637
C         29.44273       14.23071       71.24302
H         28.97388       11.97535       77.90863
H         27.95401       11.80162       75.09203
H         30.47885       11.61374       75.08097
H         30.59503       13.22137       75.83471
H         29.63498       11.24322       72.84615
H         29.89158       15.23535       74.46160
H         29.33198       12.18007       70.58712
H         29.58163       16.16018       72.19095
H         29.30374       14.63763       70.25095
N         26.84034       14.17961       75.44452
C         26.18710       15.45646       75.70963
C         25.74001       15.59141       77.14876
O         25.98222       16.61593       77.77046
C         24.95103       15.42607       74.79362
C         25.45981       14.64007       73.61319
C         26.23579       13.51989       74.30066
H         26.86998       16.28500       75.41329
H         24.14484       14.80357       75.24527
H         24.52575       16.42600       74.56033
H         24.68449       14.29516       72.89595
H         26.18439       15.29072       73.07089
H         25.57524       12.70325       74.66697
H         26.97169       13.13479       73.56570
N         25.07203       14.55816       77.72955
C         24.52063       14.57418       79.07720
C         25.60175       14.84960       80.10808
O         25.39858       15.71895       80.94493
C         23.74102       13.25779       79.36895
C         22.58379       13.07817       78.35338
C         21.58937       11.98136       78.65525
O         20.41059       12.28237       78.75201
O         21.91838       10.67792       78.78817
H         24.95402       13.70623       77.16510
H         23.77275       15.39691       79.14924
H         23.31347       13.33473       80.39214
H         24.42034       12.37942       79.33377
H         22.98160       12.89595       77.33671
H         22.01154       14.03331       78.32087
N         26.80055       14.20188       80.06764
C         27.88207       14.47496       80.99711
H         28.75047       14.89388       80.44475
H         27.59450       15.20303       81.78603
H         28.19174       13.53193       81.49158
H         26.97720       13.51433       79.32068
Ca        23.90356        9.64802       79.05362
O         23.58783        6.71662       80.19977
H         23.41097        6.56109       81.16051
H         24.54800        6.50637       80.08467
O         21.41945        7.74593       78.30352
H         20.90671        7.10815       78.86074
H         20.73171        8.22737       77.77865
O         24.34615        9.31520       75.67288
H         24.04239        9.60639       74.77790
H         24.63565        8.38229       75.52651
O         23.54344       10.19013       81.82139
H         22.93763        9.45293       82.08482
H         22.96880       10.80708       81.30201

Ca 1.0



