%chk=apoCaM-CA-Ng.loop1.water3.frame1206.chk
%nprocshared=20
%mem=10GB
%nosave
#b3lyp/svp scf=(tight,noincore,xqc) Test 
#IOP(5/87=12) Density=Current Pop=(MK,readradii) iop(6/33=2) iop(6/42=6)

apoCaM-CA-Ng.loop1.water3.frame1206 

   0  1 
C         29.02014       88.58281       88.15670
C         28.54373       88.18139       89.51960
O         27.64901       87.35607       89.61585
H         30.09650       88.33632       88.05197
H         28.44871       88.04910       87.36689
H         28.87721       89.67588       88.01952
N         29.08832       88.75785       90.62722
C         28.64639       88.47011       91.98853
C         27.93026       89.69010       92.52783
O         28.32584       90.28208       93.52211
C         29.81144       87.95250       92.86164
C         30.98071       88.88562       93.05988
O         32.02376       88.47215       93.80360
O         31.00318       90.00398       92.57152
H         29.81499       89.47462       90.48642
H         27.88774       87.65507       91.98954
H         30.19365       87.01784       92.39745
H         29.40646       87.69253       93.86410
N         26.80675       90.08631       91.87616
C         25.99282       91.23999       92.22185
C         24.68769       90.77777       92.86904
O         24.44993       91.22664       93.98259
C         25.81034       92.16019       90.99284
C         27.17515       92.62417       90.44915
C         27.03427       93.42776       89.15233
C         28.41667       93.82018       88.60887
N         28.30160       94.51295       87.32655
H         26.52569       89.51763       91.07177
H         26.51852       91.85830       92.98668
H         25.20732       93.05089       91.27674
H         25.27140       91.63411       90.18455
H         27.80017       91.73384       90.22054
H         27.69586       93.23302       91.22131
H         26.42623       94.34108       89.33172
H         26.51886       92.79585       88.39597
H         29.03396       92.90442       88.46671
H         28.93279       94.47861       89.34276
H         27.85018       93.88555       86.62143
H         27.73773       95.38647       87.43615
H         29.25833       94.76423       86.98725
N         23.81408       89.84786       92.36272
C         23.89946       89.13208       91.08882
C         24.43405       87.70995       91.30381
O         24.70732       87.32915       92.43339
C         22.51704       89.13499       90.39730
C         21.51258       88.35113       91.19460
O         21.77071       87.05919       91.46462
O         20.50108       88.87988       91.62042
H         23.04039       89.57110       92.98754
H         24.57745       89.64155       90.39475
H         22.59744       88.67443       89.39026
H         22.17518       90.18552       90.26059
N         24.63665       86.88009       90.23863
C         25.21815       85.54662       90.34973
C         24.31608       84.49401       90.96692
O         23.18140       84.77370       91.31907
H         24.44787       87.23911       89.29128
H         26.17038       85.60951       90.91828
H         25.45458       85.18409       89.32615
N         24.79510       83.22390       91.11394
C         24.02956       82.09030       91.65130
C         24.42917       80.79059       90.92405
O         25.40358       80.82532       90.18350
C         24.35793       81.96579       93.15805
C         23.94147       83.18223       93.93286
O         22.76513       83.50360       93.98906
O         24.86485       83.91138       94.58724
H         25.78719       83.07301       90.87151
H         22.94262       82.26611       91.49904
H         25.45328       81.81479       93.27585
H         23.85781       81.10610       93.62815
N         23.80291       79.57961       91.07229
C         22.56283       79.30545       91.78086
C         21.37775       79.81998       91.00914
O         21.17749       79.39102       89.88144
H         24.23528       78.76628       90.60567
H         22.59053       79.66751       92.81976
H         22.42381       78.20378       91.84522
N         20.54703       80.74578       91.55475
C         19.38324       81.28941       90.86642
C         19.70452       82.69406       90.42447
O         20.26752       83.45178       91.19771
C         18.13296       81.24239       91.77086
C         17.68292       79.79701       92.00684
O         17.08289       81.93955       91.14744
H         20.77873       81.12641       92.48594
H         19.14312       80.70619       89.94951
H         18.38361       81.72859       92.74342
H         16.48060       82.26362       91.86772
H         18.48410       79.20270       92.49180
H         16.78265       79.78329       92.65691
H         17.41664       79.32036       91.03724
N         19.38055       83.08264       89.15658
C         19.70454       84.35858       88.53234
C         19.12664       85.52620       89.30629
O         19.59155       85.80101       90.39687
C         21.24178       84.51552       88.32055
C         21.79884       83.28380       87.55835
C         21.54825       85.83045       87.57314
C         23.30985       83.31727       87.32871
H         18.86945       82.41240       88.56172
H         19.24014       84.34670       87.52055
H         21.73952       84.56154       89.30883
H         21.28877       83.18273       86.57614
H         21.59000       82.36880       88.15416
H         22.63950       85.98994       87.46745
H         21.07961       85.82404       86.56604
H         21.16622       86.70532       88.13817
H         23.84717       83.41118       88.29430
H         23.62464       82.37185       86.83899
H         23.59740       84.15079       86.65705
N         18.14465       86.30049       88.77282
C         17.68842       87.52596       89.41839
C         16.24272       87.46775       89.85870
O         15.80301       88.46309       90.42079
C         17.98137       88.74633       88.50989
C         17.22395       88.71549       87.18033
O         19.35627       88.81471       88.23574
H         17.74078       86.03648       87.86359
H         18.25463       87.70493       90.35920
H         17.66803       89.67805       89.03807
H         19.79831       89.13141       89.06494
H         17.52792       87.84464       86.56469
H         16.12848       88.67899       87.35354
H         17.45933       89.63469       86.60369
N         15.44234       86.36724       89.69868
C         14.08941       86.34311       90.25056
C         14.22194       86.42756       91.76407
O         14.66207       85.46434       92.37750
C         13.30737       85.08175       89.80874
C         11.84268       85.13788       90.26046
O         13.34225       84.98795       88.40745
H         15.80003       85.53554       89.20530
H         13.55333       87.23140       89.84455
H         13.80395       84.18688       90.25499
H         13.21933       84.02898       88.17878
H         11.76567       85.20840       91.36490
H         11.33560       86.01642       89.80534
H         11.31203       84.21926       89.93066
N         14.00462       87.61474       92.39925
C         14.32925       87.88984       93.79837
C         15.81188       87.65290       94.09863
O         16.54811       87.17407       93.24940
C         13.46153       87.06620       94.77399
C         11.96126       87.18047       94.48505
C         11.15341       86.45129       95.56934
C          9.66661       86.29520       95.21469
N          8.99013       87.57616       95.01147
H         13.65964       88.41151       91.84195
H         14.11333       88.96696       93.98004
H         13.65380       87.42616       95.80811
H         13.74731       85.99327       94.72818
H         11.75997       86.71819       93.49521
H         11.66062       88.25008       94.45584
H         11.26474       86.99214       96.53586
H         11.56036       85.42483       95.70041
H          9.16921       85.74785       96.04610
H          9.57343       85.67722       94.29435
H          9.38477       88.07231       94.18094
H          7.97751       87.39262       94.82606
H          9.07755       88.17311       95.86510
N         16.30974       87.96672       95.32506
C         17.66670       87.64742       95.76143
C         18.77141       88.19221       94.86406
O         19.70324       87.43808       94.64297
C         17.94069       88.08963       97.21190
C         16.99742       87.42994       98.23139
C         17.37664       87.82858       99.62746
O         18.59099       87.50880      100.11511
O         16.58566       88.43748      100.32969
H         15.67783       88.43365       95.98899
H         17.76870       86.53636       95.76099
H         17.87413       89.19575       97.29018
H         18.98130       87.78098       97.46606
H         17.05922       86.32291       98.14976
H         15.94768       87.73393       98.04166
N         18.83081       89.44532       94.32681
C         17.83614       90.48757       94.42879
H         16.97675       90.22445       95.06023
H         18.30553       91.39562       94.85560
H         17.46889       90.72319       93.40582
H         19.66058       89.68076       93.76392
Ca        20.69956       85.69691       92.90052
O         18.02430       84.44226       92.91722
H         17.67744       84.82735       93.75988
H         17.76697       85.09213       92.21650
O         22.76026       86.71826       95.04030
H         23.58523       86.17471       94.99047
H         22.97583       87.53937       94.53179
O         20.26005       84.32226       95.53392
H         20.37612       84.89592       96.33230
H         19.32785       83.99505       95.59417

Ca 1.0



