%chk=apoCaM-CA-Ng.loop4.water3.frame253.chk
%nprocshared=20
%mem=10GB
%nosave
#b3lyp/svp scf=(tight,noincore,xqc) Test 
#IOP(5/87=12) Density=Current Pop=(MK,readradii) iop(6/33=2) iop(6/42=6)

apoCaM-CA-Ng.loop4.water3.frame253 

   -3  1 
C         25.66508       37.88732       17.61813
C         24.87776       38.27525       18.83125
O         25.42362       38.24351       19.92358
H         26.70076       37.59624       17.89836
H         25.17414       37.03296       17.10921
H         25.71723       38.75221       16.92369
N         23.58470       38.69244       18.70150
C         22.75778       39.15717       19.80903
C         23.41604       40.35797       20.47008
O         23.80102       40.29332       21.62272
C         22.24301       37.99188       20.70184
C         23.24633       37.10044       21.37247
O         24.00050       37.56238       22.37809
O         23.31954       35.92110       21.06381
H         23.17845       38.73668       17.75467
H         21.80703       39.55594       19.38803
H         21.62790       37.34557       20.03690
H         21.56271       38.39661       21.48272
N         23.54402       41.50077       19.72378
C         24.09884       42.81190       20.08879
C         23.27753       43.46841       21.18769
O         22.55504       44.40831       20.88141
C         25.64494       42.81271       20.32010
C         26.27090       44.24033       20.20916
C         26.33234       41.95363       19.23943
C         25.89818       45.24584       21.29597
H         23.17735       41.44893       18.75981
H         23.95083       43.43520       19.17467
H         25.89208       42.35783       21.30321
H         26.01322       44.68110       19.21938
H         27.37847       44.14701       20.25350
H         27.43398       41.94906       19.38616
H         25.99600       40.90017       19.29523
H         26.11070       42.34590       18.22263
H         26.43804       46.19806       21.10412
H         24.82206       45.49006       21.29882
H         26.21184       44.86780       22.28656
N         23.29995       43.02406       22.47739
C         22.42151       43.56804       23.49960
C         22.91872       44.93665       23.97447
O         22.18068       45.89089       23.77496
C         22.15246       42.51345       24.59841
C         21.08044       42.95011       25.55637
O         19.95680       43.19997       25.14783
O         21.34206       43.03193       26.87397
H         23.91070       42.24354       22.73704
H         21.41887       43.70218       23.02906
H         23.06559       42.23762       25.14845
H         21.79501       41.58137       24.10673
N         24.13352       45.17398       24.56633
C         25.11228       44.14591       24.89968
C         26.40382       44.68488       25.51395
O         26.53973       45.89507       25.62378
H         24.34822       46.15631       24.79485
H         25.37142       43.58512       23.98646
H         24.64431       43.50815       25.64695
N         27.43239       43.88315       25.95090
C         27.50485       42.42010       25.92411
C         27.45648       41.93201       24.47966
O         26.44744       41.36801       24.08384
C         26.48516       41.76861       26.89231
C         26.78980       40.31456       27.13780
O         27.98300       39.94999       27.64681
O         25.94822       39.46094       26.91362
H         28.26114       44.36187       26.33891
H         28.47278       42.11747       26.37146
H         25.44660       41.84932       26.54029
H         26.56307       42.28099       27.87581
N         28.48054       42.14395       23.59420
C         29.80868       42.61421       23.95800
C         30.17473       43.94051       23.36077
O         29.40521       44.53841       22.62154
H         28.33907       41.88775       22.60718
H         30.55436       41.85293       23.64150
H         29.92499       42.73856       25.04490
N         31.36614       44.48585       23.73065
C         31.79884       45.82309       23.35072
C         32.28108       45.89071       21.90846
O         32.57921       46.99012       21.46101
C         32.93131       46.29583       24.29559
C         32.47778       46.33716       25.76962
C         33.60220       46.76636       26.67580
N         34.05870       45.94236       27.64954
O         34.10346       47.87166       26.53456
H         31.94990       43.94488       24.38766
H         30.94216       46.52175       23.48266
H         33.25519       47.31858       24.00116
H         33.80223       45.60950       24.19512
H         32.12437       45.33614       26.09111
H         31.62897       47.04522       25.88322
H         33.65212       45.00519       27.78735
H         34.82584       46.24016       28.27008
N         32.41885       44.77396       21.13064
C         32.92588       44.81080       19.75919
C         34.26470       44.08572       19.62263
O         34.84473       44.16745       18.54890
C         31.87147       44.26614       18.75768
C         30.60025       45.12785       18.77863
C         31.51243       42.79951       19.02622
H         32.18332       43.85476       21.52700
H         33.13946       45.86241       19.46483
H         32.29997       44.33037       17.73267
H         30.11499       45.10059       19.77770
H         30.84903       46.18173       18.53080
H         29.87351       44.75827       18.02403
H         32.42180       42.16427       18.99143
H         31.03096       42.69070       20.01703
H         30.80131       42.43053       18.25718
N         34.84167       43.40592       20.66172
C         36.19198       42.85356       20.60583
C         36.25451       41.34006       20.79910
O         36.89657       40.69358       19.98166
C         37.13586       43.61091       21.58147
C         36.78115       43.69296       23.05433
N         37.62300       44.32661       23.90223
O         35.74953       43.21771       23.49601
H         34.33838       43.32686       21.55172
H         36.64653       43.04414       19.60674
H         37.21220       44.66107       21.22419
H         38.14675       43.15419       21.49484
H         38.50216       44.74071       23.56022
H         37.39866       44.39679       24.90618
N         35.68409       40.70581       21.86358
C         35.95138       39.30968       22.19907
C         34.69665       38.46190       22.20841
O         33.71271       38.84482       22.82569
C         36.57154       39.23474       23.60877
C         37.89888       39.93945       23.72732
C         39.00277       39.51985       22.96517
C         38.05459       41.00185       24.63166
C         40.24033       40.15410       23.10762
C         39.29215       41.63481       24.77177
C         40.38887       41.21374       24.01408
O         41.57824       41.82876       24.16993
H         35.08507       41.23442       22.50769
H         36.67782       38.85309       21.49268
H         36.74471       38.17177       23.87923
H         35.84545       39.65407       24.34084
H         38.91096       38.69534       22.26953
H         37.22009       41.33854       25.23405
H         41.08377       39.81642       22.51871
H         39.39881       42.45045       25.47551
H         42.36512       41.55984       23.67497
N         34.72897       37.21656       21.64443
C         33.68012       36.20798       21.77669
C         32.40903       36.53183       21.01095
O         31.48213       35.73615       21.08385
C         33.40773       35.86459       23.26481
C         34.67997       35.44803       24.02949
C         35.35413       34.24799       23.42443
O         36.61770       34.34451       22.96732
O         34.76406       33.18235       23.34700
H         35.59256       36.91612       21.16662
H         34.05342       35.27148       21.30520
H         32.67651       35.02851       23.31948
H         32.95182       36.72990       23.78773
H         34.41274       35.21275       25.08157
H         35.39386       36.29530       24.04726
N         32.32587       37.60024       20.16593
C         31.19407       37.81408       19.27192
C         31.59404       37.52066       17.83119
O         30.73936       37.62321       16.96111
C         30.69563       39.26756       19.37804
C         30.29189       39.71802       20.78648
C         29.09520       39.00351       21.32892
O         27.98265       39.70721       21.59026
O         29.13444       37.81218       21.58804
H         33.12884       38.23705       20.06490
H         30.36087       37.11923       19.50988
H         29.83188       39.42255       18.69325
H         31.52002       39.93059       19.04196
H         30.03124       40.79403       20.72721
H         31.14101       39.61418       21.49425
N         32.86208       37.14067       17.49216
C         33.24095       36.86032       16.12642
H         34.31600       36.58189       16.08451
H         32.63859       36.01493       15.73291
H         33.08277       37.76156       15.49761
H         33.59723       37.04159       18.20574
Ca        26.32057       38.77812       22.74784
O         23.69778       39.47520       24.65433
H         23.14561       38.76684       25.06990
H         24.62709       39.15662       24.76609
O         28.59127       38.21929       24.70863
H         27.96689       38.95647       24.92234
H         28.28711       37.46661       25.27506
O         26.89574       35.79607       23.08099
H         25.99444       35.38795       23.04548
H         27.20047       35.80580       22.13898

Ca 1.0



