%chk=apoCaM-CA-Ng.loop1.water3.frame24.chk
%nprocshared=20
%mem=10GB
%nosave
#b3lyp/svp scf=(tight,noincore,xqc) Test 
#IOP(5/87=12) Density=Current Pop=(MK,readradii) iop(6/33=2) iop(6/42=6)

apoCaM-CA-Ng.loop1.water3.frame24 

   0  1 
C         70.35093       32.36529       58.43609
C         68.92169       31.99081       58.18445
O         68.03497       32.76060       58.52639
H         70.90706       32.39014       57.47622
H         70.41881       33.36412       58.91817
H         70.81428       31.61330       59.10911
N         68.62830       30.80177       57.58614
C         67.26377       30.33611       57.35114
C         67.01569       29.02966       58.09391
O         66.35119       28.14391       57.57355
C         66.98177       30.24329       55.83275
C         67.84968       29.26413       55.07649
O         67.70533       29.14511       53.87101
O         68.77821       28.51520       55.70011
H         69.41469       30.19585       57.31182
H         66.54033       31.07127       57.76673
H         67.13617       31.25178       55.39122
H         65.91819       29.96125       55.67594
N         67.54984       28.85212       59.33346
C         67.38432       27.65603       60.14732
C         66.84443       28.07193       61.49693
O         67.41560       28.98644       62.07734
C         68.74204       26.96073       60.36378
C         69.41083       26.42493       59.08676
C         68.55326       25.38690       58.33743
C         69.33492       24.63406       57.24690
N         69.85866       25.51784       56.20614
H         68.13401       29.60609       59.72643
H         66.71815       26.92497       59.66785
H         68.59130       26.09856       61.04896
H         69.44747       27.66247       60.86055
H         70.35473       25.93470       59.41013
H         69.66515       27.27039       58.41364
H         67.66673       25.87726       57.88410
H         68.19742       24.62191       59.06068
H         68.65124       23.89116       56.77853
H         70.17484       24.07640       57.71605
H         70.35425       24.93888       55.49054
H         69.07280       26.02337       55.74063
H         70.54653       26.19549       56.60533
N         65.80795       27.46479       62.13694
C         65.03329       26.29350       61.72835
C         65.88561       25.04889       61.41405
O         65.73806       24.49949       60.33029
C         64.05769       26.62488       60.58975
C         63.30686       27.89422       60.80893
O         62.59455       28.13586       61.92714
O         63.33810       28.74681       59.93583
H         65.56745       27.84650       63.06703
H         64.38740       26.02774       62.59644
H         63.32304       25.80664       60.50274
H         64.57701       26.70114       59.61486
N         66.76904       24.49027       62.29414
C         67.07462       25.03587       63.59993
C         66.57953       24.15746       64.71449
O         66.18834       23.02583       64.47091
H         67.25629       23.62277       62.01784
H         66.58773       25.99424       63.74190
H         68.16920       25.20793       63.69422
N         66.51900       24.62653       65.99456
C         66.80065       26.01723       66.35541
C         65.60994       26.94841       66.07558
O         65.72385       28.13632       66.33668
C         67.26114       26.10593       67.82628
C         66.22441       25.74288       68.86026
O         66.56236       25.77645       70.16256
O         65.08681       25.42966       68.54588
H         66.15192       23.98949       66.71802
H         67.67615       26.37516       65.76928
H         67.60100       27.14369       68.03366
H         68.13699       25.43229       67.95207
N         64.43510       26.47526       65.55777
C         63.25840       27.31898       65.36535
C         62.08290       26.54585       64.78151
O         62.24100       25.40223       64.37987
H         64.36528       25.47818       65.33020
H         63.49213       28.17734       64.69893
H         62.95786       27.71208       66.36030
N         60.83907       27.10835       64.74618
C         59.67613       26.36565       64.26187
C         59.78110       26.12360       62.76620
O         59.79252       27.07518       61.99882
C         58.35067       27.07682       64.62323
C         57.13654       26.23679       64.20532
O         58.26942       28.33835       64.01154
H         60.71611       28.05234       65.14075
H         59.65283       25.39304       64.80406
H         58.29706       27.18157       65.73360
H         58.60913       29.00667       64.66149
H         57.10702       26.09947       63.10282
H         57.17714       25.23561       64.68662
H         56.19908       26.74073       64.51899
N         59.87425       24.85407       62.28788
C         60.00938       24.55306       60.86953
C         58.64797       24.64853       60.19404
O         57.76698       23.87131       60.53642
C         60.63437       23.13147       60.67970
C         62.04279       23.07520       61.33489
C         60.72080       22.76752       59.18487
C         62.67806       21.68700       61.35190
H         59.89805       24.07720       62.96582
H         60.72174       25.27489       60.40872
H         59.97513       22.38869       61.18255
H         61.98346       23.40184       62.39300
H         62.72730       23.75920       60.80302
H         61.11505       21.74336       59.03609
H         59.71278       22.77711       58.73271
H         61.36411       23.49011       58.63867
H         62.02880       20.97608       61.90413
H         62.86411       21.30859       60.32777
H         63.65988       21.74795       61.86864
N         58.43263       25.53860       59.18050
C         57.21927       25.54414       58.35956
C         57.53490       25.16773       56.91165
O         56.60590       25.05818       56.12350
C         56.47500       26.89800       58.45651
C         57.25327       28.06624       57.84589
O         56.19392       27.18889       59.80097
H         59.18831       26.19749       58.94134
H         56.51264       24.76797       58.72771
H         55.51773       26.83163       57.88558
H         55.40537       26.64218       60.05700
H         56.66343       29.00191       57.95052
H         58.22590       28.20505       58.35441
H         57.43479       27.89437       56.76375
N         58.81642       24.92006       56.49929
C         59.19209       24.45220       55.17447
C         58.86650       25.47621       54.10678
O         58.07680       25.18705       53.21623
C         58.61139       23.04413       54.86864
C         58.92071       22.05972       56.00363
O         59.18967       22.57713       53.67467
H         59.59895       25.01828       57.15769
H         60.29934       24.32661       55.15960
H         57.50709       23.10664       54.74605
H         58.73944       21.72387       53.44176
H         58.40468       22.38029       56.93090
H         58.54249       21.04815       55.74917
H         60.01535       22.00129       56.18501
N         59.53051       26.67047       54.08368
C         59.42688       27.58388       52.95494
C         59.25058       29.01995       53.42674
O         58.21459       29.60604       53.14508
C         60.67985       27.36805       52.07251
C         60.62264       27.97362       50.65836
C         59.46472       27.45506       49.77472
C         59.43250       25.91989       49.62377
N         58.32647       25.50000       48.76370
H         60.24322       26.85543       54.80597
H         58.53938       27.30590       52.35029
H         60.83475       26.27537       51.95035
H         61.58543       27.73477       52.59889
H         61.58128       27.71957       50.15347
H         60.55841       29.07993       50.72813
H         59.57690       27.91033       48.76666
H         58.49522       27.80123       50.18657
H         59.29372       25.43911       50.61513
H         60.39341       25.56269       49.19134
H         58.32158       24.45610       48.69655
H         57.41615       25.81211       49.17423
H         58.43980       25.90175       47.80531
N         60.23717       29.66052       54.12417
C         60.13650       31.04449       54.58239
C         60.98429       31.93878       53.71071
O         62.16574       31.67034       53.53756
C         60.60955       31.20645       56.03901
C         59.73359       30.44927       57.03156
C         60.15691       30.74595       58.43893
O         60.73683       29.77808       59.15851
O         60.02110       31.86208       58.91292
H         61.12485       29.16559       54.29576
H         59.08489       31.40370       54.53428
H         60.57179       32.28931       56.29427
H         61.66555       30.86366       56.14090
H         59.83706       29.36159       56.82889
H         58.66587       30.73514       56.92296
N         60.43684       33.06221       53.16755
C         61.17591       34.00407       52.35560
H         62.22222       33.68015       52.17802
H         60.66705       34.11797       51.37655
H         61.19386       34.98904       52.86852
H         59.44955       33.28761       53.36301
Ca        61.09270       29.69106       61.37640
O         63.09732       31.87628       61.56551
H         64.08197       31.96066       61.62106
H         62.81993       32.58545       60.93267
O         57.97993       29.56701       61.31206
H         58.31399       29.12919       60.49096
H         57.27334       28.95850       61.64336
O         59.65579       32.48806       61.85097
H         58.76751       32.53018       61.41531
H         60.21635       33.11900       61.33300

Ca 1.0



