%chk=apoCaM-CA-Ng.loop3.water3.frame809.chk
%nprocshared=20
%mem=10GB
%nosave
#b3lyp/svp scf=(tight,noincore,xqc) Test 
#IOP(5/87=12) Density=Current Pop=(MK,readradii) iop(6/33=2) iop(6/42=6)

apoCaM-CA-Ng.loop3.water3.frame809 

   0  1 
C        -19.33273       91.50117       78.09969
C        -20.82463       91.57230       78.25386
O        -21.29497       92.03453       79.28173
H        -18.89748       90.86786       78.89800
H        -19.04570       91.07978       77.11225
H        -18.90949       92.52617       78.16866
N        -21.63558       91.16960       77.24000
C        -23.08662       91.33891       77.26223
C        -23.74458       90.41290       78.28202
O        -23.14825       89.39761       78.61633
C        -23.60722       91.06634       75.83086
C        -24.92211       91.67055       75.46104
O        -25.27348       91.61953       74.29377
O        -25.64214       92.40711       76.31698
H        -21.18586       90.81229       76.38192
H        -23.27746       92.40002       77.50864
H        -23.58854       89.97742       75.60801
H        -22.90692       91.56941       75.12693
N        -24.99553       90.66699       78.77399
C        -25.74049       89.71979       79.60431
C        -26.98572       89.19853       78.88288
O        -27.53913       88.21548       79.35419
C        -26.14874       90.33573       80.96201
C        -24.95987       90.63064       81.89035
C        -25.45892       91.16580       83.24556
C        -24.31415       91.32563       84.25636
N        -24.81543       91.81437       85.54264
H        -25.45275       91.55097       78.52197
H        -25.11756       88.81963       79.80169
H        -26.79822       89.60515       81.49422
H        -26.74225       91.25973       80.79114
H        -24.27062       91.36751       81.42363
H        -24.40790       89.68042       82.06144
H        -26.19506       90.44986       83.67375
H        -25.96519       92.14447       83.09291
H        -23.55581       92.03649       83.86130
H        -23.82471       90.33804       84.41231
H        -25.24343       92.76153       85.42674
H        -25.52727       91.15252       85.93020
H        -24.02063       91.88272       86.21885
N        -27.49637       89.79194       77.75939
C        -28.64577       89.27432       77.01877
C        -28.32207       89.05277       75.53446
O        -29.21797       88.65976       74.79915
C        -29.87149       90.18753       77.24483
C        -29.70242       91.61205       76.79988
O        -29.52533       91.87752       75.62549
O        -29.80863       92.61221       77.69428
H        -27.08656       90.66536       77.41375
H        -28.95053       88.28263       77.42018
H        -30.09358       90.18871       78.33504
H        -30.75506       89.75411       76.72789
N        -27.06006       89.21528       75.03247
C        -26.68371       88.90164       73.65854
C        -27.22284       89.83020       72.57623
O        -26.97731       89.52504       71.41804
H        -26.29391       89.46492       75.66939
H        -27.00707       87.86024       73.44108
H        -25.57491       88.92440       73.57634
N        -27.95299       90.95448       72.84138
C        -28.55717       91.78584       71.79563
C        -28.19447       93.25918       71.89876
O        -28.48086       93.87624       72.91447
C        -30.09479       91.70527       71.90058
C        -30.63161       90.35925       71.50332
N        -30.49084       89.91889       70.23042
O        -31.22829       89.67669       72.32169
H        -28.13655       91.20405       73.81831
H        -28.26529       91.43426       70.78334
H        -30.56277       92.44766       71.21587
H        -30.40411       91.96102       72.93906
H        -30.01530       90.49772       69.52181
H        -30.87760       89.00862       69.94320
N        -27.72397       93.92129       70.79892
C        -27.73370       95.37284       70.69274
C        -26.80489       96.06314       71.64969
O        -25.59889       95.95973       71.47312
H        -27.49871       93.38797       69.94546
H        -28.77738       95.71336       70.86079
H        -27.45621       95.67994       69.66062
N        -27.31177       96.83054       72.66493
C        -26.48814       97.58917       73.61187
C        -25.65932       96.64990       74.53316
O        -25.40691       95.43492       73.92298
C        -27.38692       98.43961       74.53711
C        -28.33972       99.35365       73.79871
C        -29.72170       99.09102       73.83606
C        -27.87577      100.46953       73.08295
C        -30.62159       99.92161       73.16664
C        -28.78269      101.30957       72.42244
C        -30.15595      101.03748       72.45987
O        -31.01725      101.85200       71.81682
H        -28.33737       96.89780       72.74107
H        -25.82267       98.25282       73.01587
H        -26.77558       99.04191       75.24411
H        -27.98356       97.72420       75.14146
H        -30.10540       98.23423       74.37631
H        -26.81793      100.69684       73.04721
H        -31.68044       99.69657       73.20097
H        -28.41939      102.17446       71.88172
H        -31.97294      101.69531       71.82105
N        -24.42453       97.29654       75.02427
C        -23.45544       96.49252       75.81871
C        -24.11120       95.94645       77.08021
O        -24.98123       95.10054       76.98057
C        -22.72457       95.35724       75.00961
C        -21.63340       94.62337       75.83716
C        -22.13244       95.87434       73.68389
C        -20.44542       95.48092       76.27705
H        -23.92777       97.78972       74.24830
H        -22.67229       97.21669       76.12453
H        -23.45001       94.56145       74.75159
H        -21.23739       93.77955       75.22881
H        -22.09231       94.18538       76.74448
H        -21.61836       95.05101       73.14391
H        -22.92997       96.24454       73.00816
H        -21.41164       96.69940       73.85908
H        -20.76991       96.30248       76.94565
H        -19.73113       94.84361       76.84008
H        -19.90778       95.89949       75.40218
N        -23.74279       96.40199       78.31186
C        -24.37405       95.90748       79.54061
C        -24.28610       96.84753       80.74240
O        -24.83989       96.47634       81.77355
C        -23.81143       94.52505       79.90247
O        -22.43885       94.62659       80.17403
H        -23.00834       97.11317       78.34357
H        -25.46367       95.80649       79.35469
H        -23.97305       93.81606       79.07013
H        -24.36307       94.12756       80.78787
H        -22.23005       93.94357       80.86293
N        -23.67111       98.06691       80.72324
C        -23.66625       98.95112       81.88371
C        -25.08180       99.38378       82.24084
O        -25.95664       99.26682       81.39366
C        -22.82870      100.19258       81.58016
H        -23.19561       98.40460       79.87904
H        -23.21641       98.38690       82.72980
H        -21.77271       99.90155       81.39106
H        -23.22367      100.71706       80.68407
H        -22.87632      100.90005       82.41951
N        -25.43880       99.83680       83.47942
C        -24.57050       99.92701       84.65132
C        -24.86982      101.19789       85.43960
O        -26.04378      101.47981       85.64098
C        -24.87025       98.72831       85.55374
H        -26.44519      100.01635       83.62834
H        -23.49980       99.84830       84.39113
H        -24.22633       98.76116       86.45907
H        -25.93601       98.72093       85.86811
H        -24.65443       97.78494       85.00764
N        -23.91560      101.97634       86.03034
C        -22.47953      101.73050       85.99829
C        -21.90861      102.15573       84.66549
O        -21.21303      101.37053       84.03742
C        -21.78933      102.48840       87.15372
C        -20.30966      102.09271       87.29282
C        -19.68706      102.74124       88.49452
O        -19.61570      103.95710       88.57255
O        -19.19880      101.97967       89.49286
H        -24.25302      102.75499       86.61975
H        -22.28919      100.65256       86.20058
H        -22.30138      102.20409       88.10034
H        -21.89016      103.58837       87.02146
H        -19.74011      102.38287       86.38456
H        -20.24098      100.98871       87.41318
N        -22.16779      103.40007       84.17374
C        -21.68143      103.84724       82.88700
H        -20.57212      103.83917       82.87212
H        -22.07128      103.18815       82.08279
H        -22.03643      104.88165       82.68895
H        -22.75390      104.04912       84.72085
Ca       -26.64707       94.00182       75.15477
O        -29.82129       95.06362       75.29972
H        -30.54389       94.56290       74.84416
H        -30.29345       95.64356       75.94795
O        -27.70799       96.34961       77.45896
H        -28.54589       96.84580       77.28437
H        -27.40548       96.68936       78.33723
O        -27.17236       93.67482       79.05634
H        -27.53177       92.76130       78.93501
H        -26.89235       93.70440       80.00528

Ca 1.0



