%chk=apoCaM-CA-Ng.loop1.water6.frame664.chk
%nprocshared=20
%mem=10GB
%nosave
#b3lyp/svp scf=(tight,noincore,xqc) Test 
#IOP(5/87=12) Density=Current Pop=(MK,readradii) iop(6/33=2) iop(6/42=6)

apoCaM-CA-Ng.loop1.water6.frame664 

   0  1 
C         -5.24948       33.00231       16.73684
C         -5.71031       31.81341       15.93575
O         -5.93834       31.94797       14.74337
H         -4.29685       33.39027       16.32103
H         -6.01655       33.80198       16.70427
H         -5.07910       32.73649       17.80281
N         -5.84909       30.60028       16.53372
C         -6.30102       29.39842       15.83028
C         -7.74924       29.53420       15.33834
O         -8.51449       30.28687       15.92344
C         -5.98778       28.06804       16.59733
C         -5.99304       28.07464       18.12442
O         -6.79820       27.26745       18.83651
O         -5.15219       28.71651       18.73290
H         -5.60983       30.55926       17.52669
H         -5.69488       29.31772       14.89923
H         -4.94358       27.78246       16.34368
H         -6.62811       27.26086       16.18225
N         -8.12273       28.95023       14.15172
C         -9.39891       29.18478       13.46490
C        -10.03814       27.84577       13.06113
O        -10.18688       27.58376       11.87527
C         -9.09288       30.08833       12.23529
C        -10.32820       30.57111       11.44345
C         -9.88696       31.39364       10.21666
C        -11.04917       31.81659        9.29973
N        -11.98057       32.73677        9.95235
H         -7.41956       28.38837       13.64708
H        -10.09917       29.73939       14.11900
H         -8.40781       29.53666       11.55309
H         -8.55530       30.99503       12.59335
H        -10.97130       31.18130       12.11091
H        -10.92064       29.71068       11.07632
H         -9.20668       30.76368        9.60188
H         -9.31945       32.29247       10.53930
H        -11.59648       30.91548        8.94449
H        -10.61700       32.32302        8.40726
H        -12.71099       33.02229        9.26037
H        -12.45574       32.27432       10.75891
H        -11.47434       33.59285       10.27293
N        -10.38956       26.91956       14.00114
C        -10.85578       25.56769       13.65254
C        -12.02514       25.08393       14.53052
O        -11.84710       24.95141       15.72945
C         -9.65052       24.58689       13.70821
C         -8.92147       24.54196       15.02848
O         -7.86918       23.93282       15.13076
O         -9.40109       25.22608       16.07627
H        -10.19502       27.15217       14.98221
H        -11.17596       25.55199       12.59371
H         -8.91469       24.94011       12.95221
H         -9.96980       23.56220       13.42180
N        -13.26216       24.75814       14.04457
C        -13.71805       24.96231       12.68218
C        -13.95241       26.43012       12.37221
O        -14.32129       26.72934       11.24584
H        -13.94908       24.36057       14.70505
H        -14.70104       24.45896       12.55542
H        -13.01379       24.48726       11.96766
N        -13.77224       27.40026       13.31742
C        -13.97441       28.82393       13.06893
C        -13.34309       29.66990       14.16830
O        -12.89572       29.13725       15.17649
C        -15.47688       29.14269       12.89675
C        -16.28577       28.75705       14.11080
O        -16.04862       29.33678       15.30346
O        -17.16968       27.92024       14.01676
H        -13.45570       27.12068       14.25079
H        -13.41862       29.08735       12.14174
H        -15.86796       28.59126       12.01577
H        -15.61900       30.22559       12.69736
N        -13.19348       31.01014       13.99998
C        -12.43817       31.78356       14.97046
C        -12.10458       33.17498       14.50464
O        -12.72467       33.69744       13.58827
H        -13.53291       31.44485       13.12869
H        -11.46121       31.27100       15.09517
H        -12.93637       31.80366       15.96310
N        -11.01734       33.78485       15.04857
C        -10.48860       35.05837       14.58765
C        -10.15940       35.95633       15.76784
O        -10.35898       35.57219       16.91303
C         -9.22332       34.79593       13.71867
C         -8.05564       34.19515       14.50462
O         -9.54278       33.93042       12.66166
H        -10.47504       33.26616       15.75743
H        -11.22499       35.57812       13.93563
H         -8.84313       35.75203       13.29365
H        -10.00661       34.47628       11.97508
H         -7.18743       34.06345       13.82555
H         -7.74327       34.87448       15.32515
H         -8.32526       33.20731       14.93056
N         -9.55623       37.15097       15.54262
C         -9.02528       37.98939       16.60677
C        -10.16093       38.70570       17.31203
O        -10.12656       38.82609       18.52863
C         -7.96722       38.99189       16.04226
C         -6.84098       38.22173       15.28253
C         -7.35696       39.82055       17.19409
C         -5.80945       39.12666       14.60805
H         -9.40319       37.43973       14.56682
H         -8.46539       37.35246       17.33051
H         -8.47266       39.68100       15.32973
H         -7.27268       37.61289       14.46413
H         -6.31965       37.52371       15.97351
H         -6.83224       39.15342       17.91317
H         -6.63723       40.57261       16.81705
H         -8.13780       40.38633       17.74077
H         -5.22453       39.70496       15.34941
H         -5.09351       38.49943       14.03499
H         -6.31250       39.82100       13.90206
N        -11.20734       39.20235       16.59249
C        -12.29030       39.99639       17.16337
C        -12.39348       41.30007       16.37453
O        -11.68972       41.44876       15.38306
C        -13.61735       39.19264       17.10090
C        -13.49734       37.84589       17.82772
O        -14.65320       39.92964       17.69734
H        -11.24288       39.01224       15.57892
H        -12.07300       40.23696       18.22786
H        -13.85771       39.00062       16.02865
H        -15.50930       39.56101       17.35554
H        -14.46245       37.29886       17.76915
H        -12.71943       37.20955       17.35716
H        -13.24198       38.00194       18.89764
N        -13.25029       42.29281       16.74793
C        -13.42987       43.51404       15.96330
C        -12.97641       44.76077       16.70330
O        -13.03112       45.82677       16.10579
C        -14.90794       43.64245       15.50900
C        -15.88774       43.85423       16.67214
O        -15.29312       42.49253       14.80111
H        -13.79764       42.17814       17.61181
H        -12.81162       43.47031       15.04030
H        -15.01017       44.53434       14.84693
H        -14.86284       42.54562       13.90817
H        -15.88642       42.99178       17.36902
H        -15.63470       44.77631       17.23744
H        -16.91775       43.96983       16.27365
N        -12.50987       44.71728       17.98578
C        -12.11500       45.90776       18.73291
C        -11.52220       45.48724       20.06397
O        -12.17336       44.76902       20.81172
C        -13.32151       46.85365       18.94503
C        -12.91560       48.16595       19.63537
C        -14.09761       49.14181       19.68354
C        -13.70119       50.46499       20.35000
N        -14.82128       51.40575       20.34462
H        -12.42574       43.80393       18.45407
H        -11.34277       46.45464       18.14663
H        -14.11644       46.34177       19.53049
H        -13.74989       47.12700       17.96064
H        -12.09099       48.64035       19.05817
H        -12.55470       47.95637       20.66581
H        -14.93981       48.68243       20.24538
H        -14.43405       49.35159       18.64381
H        -12.84480       50.91769       19.80174
H        -13.38460       50.27165       21.39896
H        -15.10313       51.62134       19.36035
H        -15.63480       51.00196       20.86317
H        -14.52651       52.29319       20.81214
N        -10.28349       45.91567       20.42853
C         -9.64557       45.49758       21.66893
C         -9.27337       44.01874       21.61184
O         -9.75866       43.29014       22.46541
C         -8.43575       46.39044       22.02754
C         -8.88319       47.84129       22.28323
C         -7.72086       48.71680       22.64544
O         -7.68886       49.33591       23.84089
O         -6.80905       48.88771       21.85201
H         -9.79484       46.58286       19.81253
H        -10.36750       45.64267       22.50638
H         -7.66291       46.37325       21.23571
H         -7.97240       46.00372       22.96260
H         -9.62070       47.85211       23.11628
H         -9.37247       48.26667       21.38194
N         -8.44485       43.45342       20.67987
C         -7.80596       44.12332       19.56389
H         -6.70402       44.03000       19.66091
H         -8.12136       43.63495       18.61811
H         -8.05745       45.18908       19.47627
H         -8.25619       42.44170       20.75795
Ca        -8.27916       26.00016       17.80348
O         -9.81268       28.26858       20.24315
H        -10.35661       29.09183       20.15913
H         -9.28346       28.40305       21.06889
O        -12.47805       26.65549       19.08961
H        -12.97566       26.29316       19.86447
H        -13.17746       27.03134       18.49773
O        -10.59700       28.35840       17.33198
H        -10.64177       29.16668       16.76413
H        -11.30223       27.76714       16.96878
O        -11.28847       23.50533       18.35594
H        -12.20715       23.85947       18.24943
H        -11.14125       22.94931       17.54981
O        -10.10669       25.13116       20.84965
H        -10.78892       25.45819       21.48852
H         -9.52003       24.54562       21.39122
O         -7.93161       23.22948       19.14084
H         -7.63641       23.30160       18.19834
H         -7.30397       23.80843       19.64258

Ca 1.0



