%chk=apoCaM-CA-Ng.loop2.water3.frame273.chk
%nprocshared=20
%mem=10GB
%nosave
#b3lyp/svp scf=(tight,noincore,xqc) Test 
#IOP(5/87=12) Density=Current Pop=(MK,readradii) iop(6/33=2) iop(6/42=6)

apoCaM-CA-Ng.loop2.water3.frame273 

   -2  1 
C         31.61538       43.86933       33.07278
C         31.96370       44.58731       34.34458
O         32.07890       43.93687       35.37329
H         31.54470       44.57178       32.21563
H         32.39045       43.10825       32.84731
H         30.63231       43.36529       33.19103
N         32.10593       45.94289       34.35452
C         32.36253       46.71806       35.56102
C         31.09014       47.46933       35.87595
O         30.65449       48.27525       35.06405
C         33.56739       47.64832       35.33603
C         33.87728       48.48203       36.54715
O         33.84883       49.70041       36.47623
O         34.20260       47.89035       37.71220
H         31.95582       46.46061       33.47434
H         32.59783       46.04138       36.41223
H         33.36268       48.31371       34.46761
H         34.46117       47.03365       35.09413
N         30.37790       47.16248       36.99923
C         29.01949       47.64540       37.21829
C         28.15275       47.20290       36.05798
O         27.38899       48.01290       35.55296
C         28.45334       47.11935       38.53825
H         30.77147       46.48233       37.66820
H         29.01735       48.75636       37.28005
H         28.42874       46.00954       38.55368
H         29.08089       47.48251       39.38009
H         27.42154       47.50690       38.68494
N         28.32692       45.96327       35.50234
C         27.72203       45.54442       34.24492
C         26.21664       45.47598       34.40694
O         25.48628       46.11337       33.66170
C         28.24826       46.48918       33.12457
C         27.95506       46.11028       31.70940
O         28.45516       46.76215       30.80649
O         27.23123       45.02931       31.40431
H         28.98949       45.30453       35.94151
H         28.08388       44.51419       34.01840
H         29.35779       46.48977       33.20528
H         27.89077       47.52556       33.27199
N         25.69727       44.72645       35.42398
C         24.28028       44.65304       35.73974
C         23.73541       43.23789       35.74211
O         22.56144       43.09140       36.05356
H         26.34629       44.22230       36.04810
H         23.67559       45.25796       35.03009
H         24.13675       45.08073       36.75501
N         24.49215       42.15496       35.38816
C         23.96509       40.79587       35.31839
C         24.80497       39.83467       36.14722
O         26.00194       39.72359       35.91924
C         23.95398       40.34228       33.85026
C         23.42015       38.93565       33.71330
N         24.19601       37.95295       33.20316
O         22.28250       38.68000       34.07901
H         25.47079       42.29183       35.09751
H         22.91095       40.76348       35.67582
H         24.98662       40.40538       33.44295
H         23.31065       41.02959       33.25894
H         25.15323       38.15170       32.89055
H         23.84352       36.98863       33.12403
N         24.21158       39.05898       37.09469
C         24.90840       38.04788       37.87021
C         25.39379       36.89005       37.01763
O         24.59222       36.30895       36.29868
H         23.20234       39.17646       37.27548
H         24.18399       37.61701       38.59612
H         25.73270       38.50773       38.45597
N         26.67439       36.43021       37.13707
C         27.12410       35.17980       36.52257
C         27.36635       35.32251       35.02964
O         26.73060       34.60251       34.27226
C         28.32860       34.54544       37.28063
C         29.65128       35.32422       37.25172
O         27.96207       34.26602       38.61039
H         27.29219       36.90776       37.80852
H         26.31650       34.42341       36.66433
H         28.53994       33.56442       36.79987
H         27.91434       35.12358       39.10686
H         30.41172       34.77601       37.84664
H         30.04559       35.38936       36.22274
H         29.53637       36.34117       37.67892
N         28.26039       36.22724       34.53136
C         28.52236       36.38480       33.10127
C         27.97579       37.70864       32.62350
O         27.51054       38.50144       33.43051
C         30.02789       36.14147       32.74614
C         31.06496       36.98833       33.53402
C         30.35989       34.65198       32.93998
C         30.99177       38.49270       33.28779
H         28.73865       36.86411       35.18355
H         27.93292       35.63963       32.52224
H         30.17634       36.34267       31.66235
H         32.08291       36.67009       33.21628
H         30.98672       36.79328       34.62217
H         30.24453       34.34828       34.00077
H         29.69053       34.02421       32.31312
H         31.40406       34.44280       32.62075
H         31.11080       38.71243       32.20578
H         30.04334       38.92023       33.65967
H         31.81662       38.98986       33.84192
N         27.93022       37.97164       31.28874
C         27.25156       39.12714       30.72438
C         26.13994       38.65579       29.77108
O         25.70350       39.41724       28.91871
C         28.30433       40.01504       30.03354
C         27.76442       41.35736       29.63580
O         26.63122       41.69566       29.94436
O         28.55409       42.24927       29.02061
H         28.34388       37.29501       30.62860
H         26.78658       39.74090       31.52668
H         28.73313       39.50085       29.16324
H         29.13569       40.21051       30.74587
N         25.61251       37.40218       29.88179
C         24.59910       36.85705       28.98284
C         25.16725       36.71976       27.57056
O         26.16980       36.02993       27.42322
C         24.18637       35.45318       29.48966
C         23.22781       34.74245       28.56382
C         21.91091       35.19842       28.38617
C         23.66087       33.60359       27.86198
C         21.04457       34.52109       27.51930
C         22.79683       32.93707       26.99203
C         21.48857       33.39352       26.82145
H         25.93995       36.79766       30.65019
H         23.69844       37.50656       29.00545
H         23.73947       35.52078       30.50615
H         25.11471       34.84673       29.58326
H         21.55433       36.07010       28.92036
H         24.67336       33.23706       27.97865
H         20.02855       34.86915       27.38655
H         23.14440       32.06667       26.45059
H         20.82050       32.87204       26.14845
N         24.57756       37.28342       26.46932
C         25.01386       37.02398       25.10326
C         26.26659       37.79069       24.69856
O         26.69848       37.62676       23.56734
C         23.79587       37.43168       24.26916
C         23.25857       38.60606       25.05877
C         23.37375       38.09365       26.49329
H         25.19704       35.93812       24.93866
H         23.99527       37.61475       23.19156
H         23.03412       36.62151       24.34739
H         23.97374       39.44955       24.92427
H         22.24236       38.95231       24.77441
H         23.43998       38.96036       27.18482
H         22.51576       37.44195       26.76444
N         26.91576       38.62118       25.55979
C         28.15513       39.30836       25.22339
C         29.32997       38.45197       25.63990
O         30.20062       38.19846       24.81808
C         28.20968       40.67959       25.92410
C         27.13811       41.63673       25.38400
C         27.17327       42.95434       26.10143
O         28.18040       43.64444       26.08253
O         26.08239       43.38666       26.76013
H         26.56174       38.73105       26.51838
H         28.23259       39.49486       24.12793
H         29.20804       41.14013       25.75155
H         28.07560       40.53881       27.01541
H         26.13028       41.18649       25.50996
H         27.31367       41.81487       24.30079
N         29.41768       37.95916       26.90312
C         30.54543       37.17688       27.35546
H         31.47358       37.78389       27.28849
H         30.39512       36.87670       28.41464
H         30.65095       36.26330       26.73376
H         28.64997       38.13203       27.56269
Ca        27.65051       44.24744       29.35639
O         26.86565       46.55721       27.25030
H         26.08070       47.13677       27.41891
H         27.38007       47.03234       26.55050
O         30.12823       45.54769       28.10616
H         30.89721       44.92504       28.06988
H         30.11895       45.98496       27.21791
O         24.63470       44.88818       29.03001
H         24.45642       45.09953       28.07936
H         23.79696       45.13021       29.49793

Ca 1.0



