%chk=apoCaM-CA-Ng.loop1.water4.frame729.chk
%nprocshared=20
%mem=10GB
%nosave
#b3lyp/svp scf=(tight,noincore,xqc) Test 
#IOP(5/87=12) Density=Current Pop=(MK,readradii) iop(6/33=2) iop(6/42=6)

apoCaM-CA-Ng.loop1.water4.frame729 

   0  1 
C         67.22570       18.62701        9.92059
C         68.09324       19.82342        9.64851
O         67.56114       20.86894        9.30514
H         66.64389       18.36787        9.01231
H         67.82994       17.74444       10.21982
H         66.52188       18.86164       10.74778
N         69.44300       19.75029        9.82102
C         70.34538       20.88352        9.65302
C         71.48171       20.58188        8.68495
O         72.10135       19.53667        8.76372
C         70.84731       21.38678       11.02293
C         71.20627       20.33728       12.04896
O         72.21211       19.45081       11.91749
O         70.54385       20.28910       13.07398
H         69.84980       18.86018       10.14811
H         69.80350       21.76231        9.23804
H         69.99115       21.94818       11.46446
H         71.66443       22.12548       10.88333
N         71.81224       21.50886        7.74233
C         72.92930       21.40766        6.80215
C         74.27462       21.39238        7.51493
O         74.51926       22.24814        8.35421
C         72.82102       22.59033        5.79898
C         73.96270       22.73589        4.77097
C         75.11834       23.61202        5.29403
C         76.19497       23.82658        4.22564
N         77.18946       24.80141        4.67480
H         71.23693       22.36489        7.70304
H         72.82950       20.48073        6.19540
H         72.68304       23.56574        6.31670
H         71.88428       22.39290        5.23156
H         73.54600       23.29034        3.90134
H         74.29785       21.73977        4.40789
H         75.59950       23.17962        6.18917
H         74.69582       24.60381        5.56881
H         75.73026       24.20020        3.28601
H         76.69061       22.85553        4.01983
H         76.73459       25.73228        4.81946
H         77.63114       24.48864        5.56920
H         77.92802       24.90119        3.94111
N         75.24432       20.50992        7.11690
C         76.63185       20.58108        7.58278
C         77.59662       19.89189        6.60386
O         77.22385       18.85995        6.06182
C         76.82903       19.95662        8.98261
C         76.58035       18.46919        8.97288
O         75.33977       17.96377        9.07778
O         77.52556       17.69814        8.92729
H         75.01644       19.87547        6.33714
H         76.88457       21.65331        7.63030
H         76.22089       20.44782        9.76562
H         77.89671       20.12414        9.25291
N         78.88482       20.30399        6.37636
C         79.53654       21.48230        6.92472
C         80.02962       22.36656        5.80515
O         79.28454       22.60208        4.86528
H         79.46692       19.72427        5.75977
H         80.38981       21.16821        7.56354
H         78.87763       22.08279        7.56682
N         81.26124       22.94965        5.86858
C         81.74789       23.85630        4.83370
C         82.09738       23.06587        3.58940
O         83.00622       22.24868        3.66036
C         82.98892       24.62358        5.33880
C         83.47709       25.62821        4.33189
O         84.60795       25.54596        3.87999
O         82.67107       26.63019        3.93142
H         81.83739       22.79242        6.71024
H         80.95365       24.60926        4.62654
H         83.80274       23.90343        5.58096
H         82.72786       25.16920        6.27112
N         81.40756       23.22975        2.42273
C         81.72374       22.46509        1.22457
C         80.64532       21.45113        0.95590
O         80.10898       21.41160       -0.14186
H         80.60785       23.88099        2.39296
H         82.66532       21.89202        1.35238
H         81.87549       23.15260        0.36321
N         80.27295       20.59711        1.95161
C         79.24962       19.56816        1.81452
C         79.68259       18.34227        2.59659
O         79.89031       18.47957        3.79210
C         77.90973       20.06805        2.40476
C         77.38835       21.31098        1.68039
O         76.95457       19.04321        2.29564
H         80.69934       20.72793        2.88172
H         79.08754       19.31293        0.74346
H         78.06876       20.32770        3.47953
H         76.29412       19.18425        3.02337
H         76.40607       21.60312        2.10470
H         78.08798       22.16374        1.80890
H         77.25325       21.10265        0.59874
N         79.84193       17.11584        2.01937
C         80.20569       15.94377        2.82092
C         81.69277       15.64180        2.68154
O         82.21109       14.88810        3.49457
C         79.27975       14.72835        2.50510
C         77.77373       15.10804        2.44155
C         79.49177       13.56570        3.49751
C         77.18219       15.68388        3.73053
H         79.72276       17.01434        1.00003
H         80.06624       16.18973        3.89625
H         79.53970       14.35890        1.48848
H         77.18996       14.20318        2.16243
H         77.61802       15.85099        1.63051
H         78.82065       12.71755        3.24674
H         80.52603       13.17473        3.45563
H         79.28400       13.88710        4.54016
H         77.24572       14.95576        4.56370
H         77.69480       16.62375        4.01758
H         76.10896       15.91606        3.56147
N         82.46165       16.24082        1.72475
C         83.90940       16.10730        1.66334
C         84.31562       15.43998        0.36988
O         83.98531       15.94789       -0.69366
C         84.56520       17.50245        1.75641
C         84.17670       18.23288        3.04486
O         85.96232       17.35702        1.71307
H         82.02467       16.85155        1.01939
H         84.28864       15.50097        2.51594
H         84.21335       18.11126        0.88800
H         86.32726       18.16818        1.27261
H         83.07803       18.39027        3.09202
H         84.49942       17.64966        3.93307
H         84.66674       19.22893        3.06965
N         85.06154       14.29985        0.39355
C         85.55994       13.64335       -0.80866
C         86.18641       12.30834       -0.43327
O         85.66261       11.28176       -0.84347
C         86.54692       14.57856       -1.58272
C         87.15332       13.90897       -2.81625
O         87.59385       15.02037       -0.75677
H         85.28894       13.88424        1.31120
H         84.69252       13.42010       -1.47111
H         85.99670       15.46691       -1.96466
H         87.24397       15.77698       -0.21748
H         87.76613       13.02893       -2.52736
H         86.35408       13.58801       -3.51548
H         87.81659       14.63135       -3.33963
N         87.31801       12.24819        0.32389
C         87.97309       11.00293        0.69052
C         88.30872       11.03667        2.16485
O         88.90630       12.01218        2.60368
C         89.26030       10.84447       -0.13980
C         89.82290        9.41760       -0.01944
C         91.08766        9.23814       -0.86380
C         91.53094        7.76824       -0.87311
N         92.75842        7.59595       -1.64831
H         87.77138       13.12385        0.61594
H         87.32504       10.13143        0.44815
H         90.01412       11.60745        0.15637
H         89.00802       11.00581       -1.21121
H         89.04425        8.71083       -0.38495
H         90.05366        9.17170        1.03999
H         91.89496        9.87948       -0.44758
H         90.88574        9.54989       -1.91200
H         90.72378        7.14789       -1.32523
H         91.70155        7.41477        0.16777
H         92.61765        7.93014       -2.62945
H         93.53894        8.12947       -1.20131
H         93.00986        6.58122       -1.66960
N         88.03253        9.98393        2.98310
C         88.46156        9.99500        4.37658
C         87.62492       10.98091        5.18303
O         88.20170       11.91583        5.71911
C         88.48992        8.57419        5.00576
C         89.79305        8.35202        5.79727
C         89.85573        6.97330        6.38401
O         90.72420        6.19221        6.02729
O         88.96473        6.59680        7.31966
H         87.61339        9.13544        2.57424
H         89.52201       10.33946        4.35872
H         88.49800        7.80708        4.20237
H         87.59706        8.39257        5.64298
H         89.89877        9.10182        6.60906
H         90.64940        8.47582        5.09308
N         86.26392       10.89437        5.31010
C         85.41394        9.87436        4.72171
H         84.68813       10.35230        4.03029
H         85.96540        9.10740        4.15364
H         84.85106        9.35606        5.52552
H         85.78004       11.62283        5.85810
Ca        73.90066       18.90096       10.52805
O         75.83926       18.04717       12.65061
H         76.21997       18.95943       12.59370
H         75.42648       18.00564       13.54939
O         74.29707       15.58055       11.28539
H         74.48022       15.05906       10.46380
H         73.97502       14.90997       11.93898
O         74.78488       21.55342       11.75698
H         73.82206       21.73916       11.88409
H         75.05074       22.14544       11.01004
O         72.53317       17.14831       13.76664
H         72.21950       17.95614       14.24586
H         73.25075       16.78253       14.34210

Ca 1.0



