%chk=apoCaM-CA-Ng.loop2.water4.frame398.chk
%nprocshared=20
%mem=10GB
%nosave
#b3lyp/svp scf=(tight,noincore,xqc) Test 
#IOP(5/87=12) Density=Current Pop=(MK,readradii) iop(6/33=2) iop(6/42=6)

apoCaM-CA-Ng.loop2.water4.frame398 

   -2  1 
C         -9.03248       76.94704        5.56646
C        -10.21919       76.50212        4.76095
O        -10.77522       77.31279        4.03455
H         -8.23545       77.31107        4.88581
H         -9.33371       77.76884        6.24971
H         -8.62151       76.11615        6.17823
N        -10.67094       75.22060        4.85161
C        -11.82144       74.71091        4.11811
C        -12.88126       74.31717        5.12633
O        -12.59622       73.50683        5.99799
C        -11.37125       73.51963        3.24632
C        -12.45357       72.95462        2.36074
O        -13.69908       73.46883        2.35584
O        -12.19205       72.02072        1.61979
H        -10.18264       74.56852        5.48608
H        -12.23168       75.48939        3.43777
H        -10.97666       72.70838        3.89679
H        -10.54653       73.86383        2.58419
N        -14.13391       74.85681        5.07588
C        -15.14261       74.54623        6.08315
C        -14.81913       75.23848        7.39865
O        -13.97763       76.12509        7.42339
C        -16.53159       74.98285        5.60667
H        -14.37661       75.48547        4.29453
H        -15.16621       73.44208        6.22365
H        -16.77816       74.47058        4.65200
H        -17.30600       74.71213        6.35518
H        -16.55943       76.08121        5.43972
N        -15.45894       74.86804        8.54288
C        -15.22656       75.48852        9.84648
C        -16.53723       76.01095       10.43310
O        -16.61051       76.22493       11.63597
C        -14.56083       74.46524       10.79361
C        -13.22103       74.02682       10.26562
O        -13.14374       73.39605        9.22395
O        -12.09444       74.35024       10.92787
H        -16.12968       74.08468        8.49857
H        -14.52488       76.35003        9.77926
H        -15.21144       73.57773       10.94835
H        -14.39382       74.95290       11.77944
N        -17.61651       76.24946        9.63214
C        -18.93112       76.65024       10.10546
C        -19.05078       78.02362       10.74542
O        -20.18330       78.37791       11.04157
H        -17.53726       76.08632        8.61832
H        -19.31251       75.88425       10.81565
H        -19.61283       76.65604        9.22661
N        -17.98917       78.84115       11.02844
C        -18.15732       80.13380       11.69735
C        -17.46290       81.28829       10.97836
O        -17.62270       82.41101       11.44041
C        -17.66737       80.02802       13.15518
C        -18.50039       79.03845       13.93867
N        -17.93776       77.94833       14.50859
O        -19.70155       79.23020       14.06380
H        -17.03117       78.52342       10.83856
H        -19.23382       80.41340       11.73675
H        -17.76917       81.01337       13.66045
H        -16.59343       79.74226       13.16646
H        -16.92829       77.76569       14.42074
H        -18.51740       77.28239       15.04166
N        -16.71138       81.13044        9.84647
C        -16.13393       82.26542        9.13400
C        -15.08277       83.02108        9.92665
O        -14.70487       82.59850       11.01083
H        -16.58473       80.19732        9.43132
H        -16.95934       82.96242        8.87148
H        -15.66483       81.91907        8.18838
N        -14.59461       84.19792        9.43216
C        -13.64430       85.03622       10.16816
C        -12.21820       84.49059       10.12688
O        -11.37331       85.03084       10.83059
C        -13.68208       86.51196        9.67523
C        -13.11939       86.72827        8.25985
O        -14.98532       87.03272        9.78350
H        -14.99086       84.54116        8.54553
H        -13.98404       85.06591       11.22779
H        -13.03938       87.11642       10.35254
H        -15.51626       86.71572        9.00707
H        -13.67066       86.13595        7.50084
H        -13.18756       87.80296        7.98948
H        -12.04897       86.45181        8.23593
N        -11.86736       83.45091        9.31662
C        -10.52244       82.89188        9.22512
C        -10.58020       81.45772        9.70146
O        -11.45214       80.71655        9.26166
C         -9.98530       82.97478        7.76215
C         -9.93718       84.42508        7.21484
C         -8.59823       82.31291        7.62649
C         -9.02930       85.39162        7.98817
H        -12.58599       83.01534        8.71872
H         -9.80760       83.44184        9.87512
H        -10.68034       82.40900        7.10197
H        -10.96487       84.83222        7.20004
H         -9.58895       84.39811        6.15910
H         -7.85114       82.79362        8.29132
H         -8.64723       81.23690        7.88769
H         -8.24191       82.37814        6.57620
H         -9.36474       85.51102        9.03726
H         -7.97393       85.05077        7.97714
H         -9.06489       86.39199        7.50780
N         -9.63558       80.97991       10.55766
C         -9.61243       79.60321       11.03044
C         -9.35335       79.53466       12.54837
O         -9.18740       78.44597       13.07509
C         -8.56194       78.84632       10.18916
C         -8.69897       77.34601       10.22881
O         -9.66143       76.74634       10.95657
O         -7.94886       76.66021        9.55309
H         -8.84015       81.59340       10.80097
H        -10.59073       79.11865       10.81605
H         -7.53956       79.16601       10.47596
H         -8.71409       79.11627        9.12126
N         -9.34267       80.66651       13.32086
C         -9.10164       80.68082       14.76476
C         -7.65623       80.31975       15.09106
O         -6.76192       80.91688       14.50901
C         -9.40831       82.08543       15.33358
C        -10.88574       82.39094       15.23956
C        -11.80296       81.64833       16.00676
C        -11.36407       83.40772       14.39607
C        -13.17165       81.91485       15.92787
C        -12.73730       83.66633       14.31484
C        -13.63950       82.92109       15.08017
H         -9.55660       81.57017       12.88020
H         -9.79983       79.97147       15.24901
H         -8.80174       82.83807       14.78196
H         -9.12082       82.14482       16.40674
H        -11.45762       80.86592       16.67170
H        -10.67886       83.99128       13.79449
H        -13.86850       81.33977       16.52446
H        -13.10320       84.44437       13.65809
H        -14.70098       83.12307       15.01834
N         -7.33951       79.38798       16.04801
C         -5.98366       78.98402       16.41074
C         -5.16018       78.52753       15.22724
O         -4.01089       78.92419       15.09926
C         -6.21126       77.79364       17.35457
C         -7.48481       78.19535       18.05158
C         -8.31695       78.72041       16.88673
H         -5.48335       79.81998       16.94976
H         -6.45789       76.87675       16.77032
H         -5.34997       77.56510       18.01790
H         -7.97789       77.40211       18.65184
H         -7.23713       79.05064       18.72265
H         -8.79607       77.90672       16.29867
H         -9.07928       79.41070       17.30893
N         -5.72163       77.70027       14.30539
C         -5.03663       77.17944       13.12799
C         -4.42623       78.30718       12.31674
O         -3.24836       78.22431       11.99703
C         -6.02296       76.37132       12.26168
C         -6.55019       75.11412       12.98002
C         -7.54887       74.38163       12.13599
O         -8.80550       74.20692       12.58832
O         -7.22823       73.93109       11.04773
H         -6.71534       77.46352       14.43939
H         -4.21705       76.49318       13.43809
H         -5.51506       76.05120       11.32481
H         -6.86952       77.03342       12.00149
H         -7.04981       75.38283       13.93253
H         -5.70479       74.43341       13.21407
N         -5.15154       79.41494       11.99665
C         -4.60272       80.54036       11.26522
H         -3.55820       80.36224       10.93135
H         -5.22612       80.73944       10.36972
H         -4.60826       81.43981       11.91674
H         -6.12651       79.48747       12.32086
Ca       -10.09689       73.87434        9.98669
O        -10.08030       71.34138       11.60117
H        -10.87176       71.39392       11.00831
H        -10.33373       71.87192       12.39780
O        -10.94168       75.91873        8.00188
H        -11.57360       75.18530        7.79803
H        -11.44835       76.74769        7.81390
O        -10.58832       71.51293        8.05717
H        -10.61771       71.03165        7.19306
H        -11.05479       72.36685        7.87774
O         -8.07606       73.53507        7.70027
H         -7.29161       74.10243        7.49338
H         -8.24373       73.02679        6.86728

Ca 1.0



