%chk=apoCaM-CA-Ng.loop3.water3.frame741.chk
%nprocshared=20
%mem=10GB
%nosave
#b3lyp/svp scf=(tight,noincore,xqc) Test 
#IOP(5/87=12) Density=Current Pop=(MK,readradii) iop(6/33=2) iop(6/42=6)

apoCaM-CA-Ng.loop3.water3.frame741 

   0  1 
C        104.79095        7.31969      -14.52160
C        106.02083        6.65946      -15.06018
O        106.48653        7.04791      -16.12292
H        103.98844        6.56333      -14.39264
H        105.02243        7.78499      -13.54187
H        104.43119        8.10541      -15.22021
N        106.58474        5.61759      -14.38590
C        107.75805        4.91005      -14.86912
C        107.30971        3.56044      -15.40067
O        106.71893        2.77713      -14.67073
C        108.83276        4.82698      -13.76565
C        110.16344        4.29280      -14.23910
O        111.18405        4.19966      -13.36548
O        110.34157        3.96104      -15.40097
H        106.13126        5.28011      -13.52256
H        108.21217        5.48522      -15.69602
H        108.46043        4.20459      -12.92491
H        109.02250        5.85221      -13.38237
N        107.53288        3.26130      -16.70925
C        107.06577        2.06153      -17.39956
C        107.54298        0.79517      -16.72460
O        106.76771       -0.14513      -16.61998
C        107.54029        2.09572      -18.87274
C        106.82470        3.21465      -19.65602
C        107.32087        3.32020      -21.10386
C        106.45404        4.26761      -21.95679
N        106.45042        5.64710      -21.46453
H        108.07229        3.94366      -17.25678
H        105.95299        2.03531      -17.40315
H        107.29407        1.13019      -19.36747
H        108.64544        2.23018      -18.90520
H        106.97606        4.19531      -19.16259
H        105.73721        2.98362      -19.65735
H        107.26945        2.31622      -21.57763
H        108.38177        3.65595      -21.11228
H        105.41008        3.88327      -21.98399
H        106.84622        4.25807      -22.99764
H        107.42310        6.02885      -21.44724
H        105.86986        6.23108      -22.10933
H        106.02243        5.70465      -20.51348
N        108.79171        0.71850      -16.20195
C        109.31904       -0.46285      -15.53618
C        109.42802       -0.23047      -14.02288
O        108.93765       -1.07633      -13.28676
C        110.62073       -0.93336      -16.23060
C        111.60978        0.16320      -16.48047
O        111.96857        0.92228      -15.45245
O        112.06275        0.37479      -17.59326
H        109.39215        1.55403      -16.25485
H        108.62712       -1.32959      -15.63917
H        110.37147       -1.38475      -17.21498
H        111.08784       -1.72199      -15.60119
N        109.98081        0.89510      -13.47860
C        110.02528        1.16634      -12.04819
C        111.42761        1.37060      -11.49428
O        111.50895        1.67500      -10.31252
H        110.32094        1.63950      -14.09030
H        109.54984        0.35052      -11.46116
H        109.43710        2.09037      -11.86057
N        112.56784        1.19446      -12.23736
C        113.91442        1.32841      -11.68071
C        114.78530        2.37476      -12.44869
O        115.15129        1.94564      -13.72941
C        114.60436       -0.05437      -11.53506
C        115.02900       -0.73205      -12.82111
N        114.13214       -1.18964      -13.72611
O        116.22220       -0.88889      -13.03480
H        112.48164        0.90979      -13.21005
H        113.82326        1.71053      -10.64086
H        113.94607       -0.74139      -10.95912
H        115.51777        0.10702      -10.92151
H        113.11951       -1.12016      -13.56701
H        114.45845       -1.64667      -14.59091
N        116.00411        2.66042      -11.68474
C        116.99076        3.48380      -12.40409
C        116.44465        4.83138      -12.82296
O        115.88038        5.52662      -11.99020
H        115.74142        3.13525      -10.79086
H        117.40305        2.92804      -13.27646
H        117.84292        3.65692      -11.71485
N        116.64438        5.29707      -14.09051
C        116.21349        6.62834      -14.51289
C        114.71087        6.67329      -14.76812
O        114.03473        5.66995      -14.59427
C        116.98493        7.08375      -15.78020
C        118.48526        7.13764      -15.59832
C        119.06390        7.89969      -14.56563
C        119.32529        6.45352      -16.49266
C        120.45352        7.96477      -14.42711
C        120.71484        6.53091      -16.35951
C        121.28409        7.28312      -15.32728
O        122.62611        7.34773      -15.21397
H        117.19763        4.72221      -14.74556
H        116.45371        7.35790      -13.71052
H        116.68308        8.11491      -16.05005
H        116.71982        6.42834      -16.63570
H        118.44653        8.44655      -13.86542
H        118.90670        5.87367      -17.30563
H        120.88314        8.55127      -13.62438
H        121.34991        6.00931      -17.06418
H        123.05988        7.86030      -14.51685
N        114.13703        7.83565      -15.20528
C        112.73063        8.04334      -15.54276
C        112.29967        7.16028      -16.70987
O        112.41321        5.94649      -16.62305
C        111.78506        7.89783      -14.31587
C        110.33907        8.38762      -14.63590
C        112.33688        8.63988      -13.08468
C        110.21339        9.86842      -15.03978
H        114.74093        8.66237      -15.31412
H        112.66050        9.10150      -15.86455
H        111.72314        6.82553      -14.03304
H        109.70575        8.22999      -13.73696
H        109.90775        7.77417      -15.45219
H        112.49053        9.71836      -13.29124
H        111.63977        8.52734      -12.22699
H        113.31074        8.20683      -12.77455
H        110.60123       10.54122      -14.24844
H        110.73904       10.08850      -15.98979
H        109.14476       10.11857      -15.20244
N        111.73292        7.71065      -17.82078
C        111.29819        6.93298      -18.97720
C        111.74476        7.61907      -20.24622
O        111.35502        8.76025      -20.46263
C        109.76155        6.80557      -19.00150
O        109.28003        5.98342      -17.97472
H        111.55104        8.72575      -17.82888
H        111.70506        5.89927      -18.94487
H        109.46981        6.31622      -19.95617
H        109.26852        7.80054      -18.95543
H        109.79211        6.17400      -17.15153
N        112.50290        6.96267      -21.16962
C        112.83861        7.56153      -22.46101
C        113.43703        6.54423      -23.43560
O        113.86188        5.48275      -22.99859
C        113.80590        8.74534      -22.26730
H        112.76785        5.98680      -20.96705
H        111.87303        7.89477      -22.89871
H        114.74362        8.39172      -21.78886
H        114.07254        9.22405      -23.22805
H        113.36405        9.53130      -21.62268
N        113.46756        6.73822      -24.79135
C        112.93875        7.90662      -25.49463
C        114.00280        8.53296      -26.38568
O        114.98043        7.86441      -26.68886
C        111.73739        7.47273      -26.33742
H        113.85005        5.97444      -25.37148
H        112.59369        8.66211      -24.77418
H        111.29342        8.32802      -26.88487
H        112.04244        6.70141      -27.07669
H        110.95694        7.04039      -25.67515
N        113.94588        9.82984      -26.81817
C        112.94037       10.80826      -26.41582
C        113.45830       11.66457      -25.26675
O        112.70654       12.50568      -24.79473
C        112.54123       11.69760      -27.61267
C        111.84482       10.90736      -28.72766
C        111.47033       11.81633      -29.86498
O        111.91288       11.61469      -30.98448
O        110.63809       12.85539      -29.65665
H        114.75289       10.18205      -27.35888
H        112.02185       10.31978      -26.03865
H        113.44813       12.20154      -28.01585
H        111.83601       12.48300      -27.26032
H        110.91824       10.44051      -28.32944
H        112.51668       10.10322      -29.09818
N        114.70829       11.49201      -24.73821
C        115.20920       12.25053      -23.61066
H        116.12261       12.80177      -23.91535
H        114.46732       12.97867      -23.22273
H        115.47005       11.54928      -22.78981
H        115.34961       10.78673      -25.12525
Ca       113.51120        2.46480      -15.16386
O        112.26895        3.23117      -18.63097
H        112.16570        3.54086      -19.56559
H        113.08774        2.67491      -18.64604
O        114.79496        4.66330      -17.48460
H        114.55827        5.27014      -18.23034
H        115.74802        4.44411      -17.63408
O        115.50539        1.77929      -17.06257
H        115.98523        1.21312      -16.40760
H        115.28597        1.17128      -17.81162

Ca 1.0



