%chk=apoCaM-CA-Ng.loop1.water2.frame926.chk
%nprocshared=20
%mem=10GB
%nosave
#b3lyp/svp scf=(tight,noincore,xqc) Test 
#IOP(5/87=12) Density=Current Pop=(MK,readradii) iop(6/33=2) iop(6/42=6)

apoCaM-CA-Ng.loop1.water2.frame926 

   0  1 
C         20.06107       29.79536        0.97255
C         20.83156       28.52904        0.72550
O         21.75692       28.55044       -0.07289
H         19.25000       29.64109        1.71565
H         20.74505       30.57993        1.35787
H         19.60351       30.14523        0.02345
N         20.49697       27.38078        1.37908
C         21.18015       26.10327        1.18333
C         20.23466       25.07344        0.57011
O         19.07904       25.38908        0.32081
C         21.89616       25.65221        2.48498
C         21.07495       25.52157        3.74628
O         19.76582       25.82673        3.78413
O         21.63079       25.17756        4.77694
H         19.70259       27.41584        2.03205
H         21.99048       26.21838        0.42991
H         22.68967       26.40049        2.70203
H         22.40713       24.68458        2.29818
N         20.70122       23.83992        0.21381
C         19.94589       22.87488       -0.58266
C         19.70076       21.60353        0.20233
O         20.65046       21.02363        0.71128
C         20.74749       22.57731       -1.86804
C         20.03746       21.58320       -2.80192
C         20.84837       21.36345       -4.08588
C         20.16105       20.34283       -5.00048
N         20.91578       20.14897       -6.23808
H         21.67292       23.59118        0.45277
H         18.96601       23.29812       -0.89523
H         21.74787       22.16973       -1.59926
H         20.89802       23.53561       -2.41257
H         19.03200       21.97774       -3.06665
H         19.91246       20.60809       -2.28179
H         21.86262       20.98792       -3.82577
H         20.95170       22.33100       -4.62389
H         19.13420       20.69243       -5.24943
H         20.08816       19.37382       -4.46279
H         20.97779       21.04974       -6.76600
H         21.87724       19.79765       -6.02360
H         20.42261       19.44327       -6.83177
N         18.43729       21.08936        0.29436
C         18.11751       19.86714        1.02363
C         17.60286       18.81935        0.04537
O         16.56928       19.05188       -0.56603
C         17.06925       20.17104        2.11328
C         17.57182       21.28228        2.98422
O         16.93281       22.46453        2.98827
O         18.61909       21.15932        3.59920
H         17.66354       21.57834       -0.18224
H         19.02094       19.49717        1.54448
H         16.86205       19.26684        2.72522
H         16.11912       20.49873        1.63552
N         18.25832       17.64663       -0.19827
C         19.50711       17.28284        0.44586
C         20.04267       15.97529       -0.07895
O         20.36143       15.89495       -1.25600
H         17.84730       16.99436       -0.88384
H         19.33894       17.21628        1.54226
H         20.27498       18.06120        0.24362
N         20.20494       14.91216        0.75536
C         20.77557       13.64268        0.32210
C         19.89421       12.98115       -0.72742
O         18.74264       12.68169       -0.44170
C         20.95530       12.70988        1.54464
C         21.65039       11.40358        1.24762
O         22.03922       11.12711        0.12357
O         21.85829       10.52894        2.24986
H         19.94375       15.02605        1.74731
H         21.78901       13.84370       -0.09269
H         19.96090       12.49138        1.99145
H         21.56733       13.24032        2.30647
N         20.39914       12.68320       -1.95926
C         19.66222       11.93531       -2.96621
C         18.48019       12.65837       -3.58212
O         17.81457       12.03792       -4.39904
H         21.38137       12.91986       -2.16617
H         19.31665       10.98058       -2.51300
H         20.35289       11.68048       -3.79936
N         18.15975       13.95060       -3.27996
C         17.02494       14.65402       -3.87749
C         16.02950       15.05073       -2.79987
O         16.24266       14.73035       -1.63729
C         17.51711       15.86248       -4.71883
C         18.12854       16.99103       -3.88867
O         18.46413       15.43195       -5.66252
H         18.73648       14.46823       -2.60618
H         16.48055       13.98829       -4.58231
H         16.65381       16.31784       -5.25559
H         17.96289       14.98080       -6.39118
H         18.41627       17.81787       -4.56745
H         17.38629       17.39225       -3.16826
H         19.03142       16.65124       -3.34603
N         14.90708       15.75773       -3.11577
C         13.90890       16.11721       -2.11562
C         13.22700       14.84338       -1.65679
O         13.29598       14.52279       -0.47848
C         12.88142       17.15270       -2.67603
C         13.61518       18.46695       -3.06743
C         11.77828       17.43581       -1.63237
C         12.71165       19.51201       -3.72563
H         14.75702       16.04000       -4.09476
H         14.41703       16.60595       -1.25171
H         12.39759       16.72881       -3.58324
H         14.41956       18.24417       -3.79845
H         14.09099       18.91662       -2.16844
H         12.21550       17.87425       -0.70986
H         11.00916       18.12494       -2.03251
H         11.23824       16.50488       -1.36156
H         13.32216       20.39313       -4.01587
H         12.23956       19.09163       -4.63862
H         11.92521       19.87025       -3.03215
N         12.55078       14.07037       -2.55500
C         11.85425       12.83896       -2.19875
C         10.36703       12.97958       -2.46701
O          9.94233       13.99987       -2.99370
C         12.46651       11.62999       -2.95290
C         12.30531       11.71676       -4.47632
O         13.83428       11.52635       -2.65231
H         12.51839       14.37971       -3.53743
H         11.96329       12.64361       -1.10921
H         11.94890       10.69491       -2.63612
H         13.90112       11.12684       -1.74584
H         12.83384       12.59960       -4.89043
H         12.73758       10.80930       -4.94808
H         11.23179       11.77142       -4.75549
N          9.50810       11.99426       -2.07890
C          8.05977       12.08980       -2.23691
C          7.36503       12.28362       -0.89363
O          6.15560       12.46336       -0.89588
C          7.50703       10.87015       -3.01871
C          7.66427        9.53810       -2.27488
O          8.15279       10.76955       -4.26176
H          9.89622       11.16985       -1.59726
H          7.80474       12.99425       -2.83162
H          6.41158       11.00902       -3.17990
H          7.73679       11.44425       -4.85958
H          7.22396        8.71970       -2.88351
H          8.73107        9.29406       -2.09627
H          7.12813        9.56671       -1.30385
N          8.06402       12.31840        0.28293
C          7.45015       12.60096        1.58203
C          8.49906       12.77678        2.67906
O          9.67006       12.48925        2.46855
C          6.42448       11.50999        1.97967
C          7.05111       10.10833        2.06912
C          5.98670        9.05448        2.39708
C          6.59884        7.64905        2.45752
N          5.57543        6.64601        2.75103
H          9.08230       12.19306        0.24774
H          6.92825       13.57959        1.49368
H          5.60435       11.48201        1.23457
H          5.95932       11.77045        2.95494
H          7.83905       10.09732        2.85317
H          7.51764        9.85104        1.09428
H          5.20161        9.07136        1.60909
H          5.51644        9.29477        3.37573
H          7.38207        7.61791        3.24723
H          7.07479        7.40889        1.48036
H          4.84631        6.64613        2.00086
H          6.02177        5.70120        2.78718
H          5.12961        6.84584        3.67582
N          8.13486       13.29099        3.88795
C          9.08554       13.52132        4.97010
C         10.23892       14.42198        4.51627
O         11.37008       13.96902        4.62126
C          8.35987       14.04685        6.23065
C          9.31812       14.26853        7.41149
C          8.57434       14.74540        8.62556
O          7.71025       14.04793        9.13279
O          8.86445       15.94421        9.16654
H          7.14537       13.54414        4.03482
H          9.51996       12.53636        5.25925
H          7.59568       13.29333        6.52470
H          7.82073       14.98731        6.02097
H         10.07686       15.03258        7.13614
H          9.84389       13.32108        7.65838
N         10.09533       15.66926        3.97713
C          8.83791       16.34079        3.73081
H          8.31252       16.56012        4.67610
H          9.03219       17.31727        3.23781
H          8.20035       15.74134        3.05053
H         10.95135       16.17019        3.69073
Ca        18.22286       24.25059        3.40015
O         18.99906       23.92454        6.55085
H         19.75107       23.52683        7.05756
H         18.21651       23.36605        6.78799
O         21.51255       22.18926        3.94865
H         21.42996       22.40581        4.91141
H         21.46024       21.20137        3.91227

Ca 1.0



