%chk=apoCaM-CA-Ng.loop4.water6.frame1053.chk
%nprocshared=20
%mem=10GB
%nosave
#b3lyp/svp scf=(tight,noincore,xqc) Test 
#IOP(5/87=12) Density=Current Pop=(MK,readradii) iop(6/33=2) iop(6/42=6)

apoCaM-CA-Ng.loop4.water6.frame1053 

   -3  1 
C         31.10946       85.82142       62.62456
C         32.14324       86.37221       61.68292
O         33.02083       85.62254       61.28030
H         30.10508       85.90885       62.15690
H         31.30320       84.74616       62.82865
H         31.12653       86.36989       63.58765
N         32.10979       87.65648       61.22657
C         31.11873       88.65595       61.61487
C         30.03299       88.80404       60.55902
O         29.15938       89.64197       60.74074
C         31.81605       90.01616       61.83323
C         32.90047       89.94140       62.86969
O         34.05194       90.21741       62.57191
O         32.60702       89.58334       64.13391
H         32.80899       87.92861       60.52027
H         30.61006       88.36650       62.55800
H         31.07138       90.77308       62.16296
H         32.25187       90.36190       60.86815
N         29.99600       88.01740       59.44149
C         28.95710       88.15451       58.42050
C         29.09104       89.45886       57.63110
O         28.21423       89.74219       56.82707
C         28.96002       86.94225       57.43252
C         30.24700       86.90453       56.56003
C         28.73441       85.62312       58.20052
C         30.25419       85.78929       55.51560
H         30.70297       87.28078       59.33042
H         27.97212       88.15115       58.94027
H         28.09106       87.07085       56.74870
H         31.14738       86.79655       57.19441
H         30.33491       87.86078       56.00172
H         29.58492       85.38632       58.87287
H         27.80917       85.68981       58.81087
H         28.60036       84.77326       57.50202
H         29.36526       85.87243       54.85520
H         31.16969       85.87804       54.89308
H         30.27135       84.79035       55.99585
N         30.18262       90.26934       57.76933
C         30.43831       91.45532       56.95485
C         31.68002       92.14270       57.50560
O         32.71652       91.49894       57.59601
C         30.65677       91.04274       55.47633
C         30.86385       92.19816       54.53166
O         31.06969       91.97302       53.34993
O         30.80357       93.47475       54.95730
H         30.89581       90.01684       58.46580
H         29.56580       92.14221       57.02503
H         29.77850       90.48027       55.10073
H         31.53466       90.36714       55.41585
N         31.64466       93.43338       57.94118
C         32.77438       94.04331       58.62818
C         34.05732       94.13080       57.81637
O         35.07275       94.46948       58.40698
H         30.77161       93.97588       57.85392
H         32.97972       93.42960       59.53192
H         32.50094       95.06484       58.97274
N         34.09745       93.88762       56.47339
C         35.31445       93.98514       55.67014
C         35.41024       92.78668       54.72614
O         34.44544       92.56168       54.00754
C         35.23469       95.28130       54.84141
C         36.50906       95.53831       54.08680
O         36.50311       95.59971       52.86825
O         37.66244       95.72251       54.75755
H         33.21516       93.70545       55.97585
H         36.20953       94.06820       56.32249
H         35.06794       96.14470       55.52129
H         34.37173       95.22815       54.14019
N         36.51255       91.99064       54.58360
C         37.75525       92.11763       55.33791
C         38.86739       91.21383       54.77845
O         38.69686       90.69898       53.68224
H         36.44098       91.25034       53.86933
H         37.51855       91.87068       56.38752
H         38.11852       93.15988       55.26728
N         40.05075       90.94349       55.42164
C         40.43545       91.34163       56.77356
C         39.44535       90.74553       57.74607
O         38.77427       91.45053       58.48627
C         40.68536       92.85839       56.88147
C         41.87840       93.24914       55.98571
C         42.14352       94.72768       55.99948
N         41.23867       95.58979       55.48274
O         43.19636       95.15104       56.45289
H         40.72007       90.32908       54.93040
H         41.41074       90.86177       57.02138
H         40.94651       93.11269       57.93231
H         39.78182       93.43154       56.61665
H         41.69944       92.94532       54.93207
H         42.78114       92.70841       56.35083
H         40.35994       95.24311       55.07183
H         41.42652       96.60279       55.47272
N         39.31074       89.39138       57.74684
C         38.30552       88.64395       58.48777
C         37.46238       87.84685       57.49418
O         37.68934       87.94229       56.29457
C         38.97529       87.76608       59.59078
C         39.50594       88.65958       60.72135
C         40.10520       86.86382       59.06810
H         39.94078       88.84701       57.13555
H         37.59587       89.33031       58.99983
H         38.20396       87.11447       60.05154
H         39.92717       88.03822       61.54025
H         40.29191       89.35119       60.35208
H         38.67405       89.26068       61.14938
H         39.73564       86.19609       58.26837
H         40.95259       87.46516       58.67561
H         40.49839       86.23189       59.89371
N         36.45032       87.04717       57.92971
C         35.56027       86.30992       57.03678
C         35.82403       84.82008       57.13483
O         34.94147       84.03570       56.80968
C         34.10176       86.63886       57.42089
C         33.81173       88.11052       57.28691
N         33.88670       88.72090       56.08294
O         33.50503       88.75844       58.27491
H         36.29443       86.94458       58.94313
H         35.71742       86.58352       55.97103
H         33.92568       86.31691       58.47291
H         33.39630       86.08112       56.76886
H         34.12894       88.18946       55.23533
H         33.69945       89.72873       55.99574
N         37.04674       84.35500       57.51842
C         37.34970       82.94338       57.69891
C         37.77144       82.70765       59.13026
O         37.90496       83.66760       59.88162
C         38.40376       82.48242       56.67438
C         39.72875       83.19513       56.79815
C         40.70988       82.72084       57.68422
C         40.00248       84.32664       56.01178
C         41.94533       83.36786       57.78109
C         41.23529       84.97713       56.11589
C         42.21253       84.49741       57.00011
O         43.40868       85.11030       57.10551
H         37.80059       85.02707       57.71742
H         36.43590       82.33362       57.52475
H         37.98456       82.66387       55.66034
H         38.56939       81.38510       56.73994
H         40.52289       81.84388       58.29104
H         39.25863       84.70935       55.32396
H         42.69703       82.98817       58.46171
H         41.42948       85.85203       55.50849
H         43.63393       85.89204       56.58119
N         37.92813       81.44231       59.60160
C         38.19412       81.17146       61.00277
C         36.91909       80.62258       61.58959
O         36.53521       79.50606       61.26523
C         39.40275       80.23213       61.14723
C         39.75112       79.94167       62.61311
C         40.95264       79.04589       62.70572
O         40.85183       77.84013       63.29676
O         42.02722       79.40755       62.25241
H         37.75163       80.64617       58.96834
H         38.44199       82.11523       61.53662
H         40.27633       80.71779       60.65858
H         39.19546       79.27509       60.61872
H         38.88968       79.44612       63.10955
H         39.96843       80.89182       63.14709
N         36.15466       81.41360       62.39748
C         34.87441       80.98339       62.94400
C         33.83640       80.70403       61.84816
O         32.77989       80.17764       62.16677
C         34.35326       82.05496       63.94286
C         33.24242       81.55925       64.88626
C         33.75428       80.43227       65.73971
O         34.70829       80.60831       66.48177
O         33.20542       79.20888       65.64670
H         36.50284       82.35610       62.63440
H         35.08120       80.04422       63.49853
H         34.01184       82.95134       63.37871
H         35.19508       82.37873       64.59474
H         32.35227       81.23660       64.31105
H         32.92512       82.39138       65.55082
N         34.05580       81.02048       60.53651
C         33.09075       80.72202       59.50031
H         32.13443       81.24737       59.70499
H         33.47829       81.05775       58.51405
H         32.91294       79.62629       59.45313
H         34.92232       81.49017       60.24222
Ca        34.24493       77.48232       66.66416
O         33.09790       77.07793       63.47952
H         33.62204       77.89711       63.29572
H         32.20212       77.40929       63.74134
O         37.31654       78.12275       67.46753
H         38.07119       77.50590       67.29265
H         36.94314       77.81952       68.33298
O         32.08409       75.41746       66.28605
H         31.43538       76.01079       65.83056
H         32.57543       74.97422       65.54938
O         35.58192       74.64755       66.42179
H         36.40531       74.67720       66.97095
H         34.90909       74.21574       67.00614
O         33.76089       77.59874       69.57855
H         34.02945       76.71226       69.92819
H         32.82626       77.47356       69.27575
O         36.67010       77.97901       64.33310
H         37.56030       77.62160       64.57768
H         36.53881       77.69446       63.39404

Ca 1.0



