%chk=apoCaM-CA-Ng.loop1.water3.frame763.chk
%nprocshared=20
%mem=10GB
%nosave
#b3lyp/svp scf=(tight,noincore,xqc) Test 
#IOP(5/87=12) Density=Current Pop=(MK,readradii) iop(6/33=2) iop(6/42=6)

apoCaM-CA-Ng.loop1.water3.frame763 

   0  1 
C         55.87186       23.80828      -18.15542
C         56.91992       24.58008      -18.90150
O         57.30373       24.15559      -19.98188
H         54.95684       23.72668      -18.77746
H         56.25370       22.79030      -17.93000
H         55.60689       24.30378      -17.19754
N         57.44815       25.71718      -18.36850
C         58.49399       26.49986      -19.01865
C         59.83795       26.40805      -18.24370
O         59.64627       25.94687      -16.93354
C         58.06336       27.96256      -19.26356
C         57.73111       28.79732      -18.05319
O         57.40804       29.96384      -18.21023
O         57.77087       28.29293      -16.80724
H         57.11625       26.01893      -17.44131
H         58.67000       26.11071      -20.04578
H         57.17124       27.95625      -19.92690
H         58.88837       28.47138      -19.81114
N         60.79040       25.55752      -18.96285
C         62.16795       25.52678      -18.43226
C         62.83253       26.90120      -18.43410
O         62.81264       27.56946      -19.45905
C         62.95807       24.55335      -19.33577
C         64.42813       24.34073      -18.93137
C         65.15864       23.38976      -19.90049
C         64.62903       21.94419      -19.85703
N         65.34760       21.09420      -20.80570
H         60.84507       25.90302      -19.95086
H         62.16962       25.10114      -17.40471
H         62.93708       24.92826      -20.38399
H         62.42188       23.58369      -19.30308
H         64.49504       23.95111      -17.89284
H         64.95355       25.31959      -18.97047
H         66.23535       23.37141      -19.62563
H         65.07611       23.79044      -20.93509
H         63.55087       21.90867      -20.11495
H         64.75702       21.54072      -18.82809
H         64.98346       20.11656      -20.73170
H         65.18902       21.43739      -21.78132
H         66.37108       21.09304      -20.59260
N         63.54097       27.33108      -17.34478
C         64.33759       28.56184      -17.36705
C         65.39690       28.61376      -16.26365
O         65.28325       27.89248      -15.28249
C         63.44410       29.82682      -17.30147
C         62.52648       29.78375      -16.11367
O         61.20819       29.72586      -16.32899
O         62.95957       29.67571      -14.97769
H         63.60830       26.69840      -16.53489
H         64.90912       28.51952      -18.31692
H         62.82516       29.87969      -18.22150
H         64.04827       30.75530      -17.25020
N         66.51363       29.40035      -16.37231
C         66.84604       30.19991      -17.54276
C         67.90525       29.49263      -18.33882
O         67.79802       28.28584      -18.51580
H         67.22300       29.35279      -15.62708
H         67.14028       31.22959      -17.24671
H         65.99565       30.32710      -18.22998
N         68.91364       30.18288      -18.93411
C         69.91940       29.50916      -19.74191
C         70.79955       28.60948      -18.88532
O         70.91112       27.43739      -19.21490
C         70.69488       30.47333      -20.67426
C         71.41932       31.65666      -20.08760
O         71.36774       31.95754      -18.77974
O         72.03578       32.39563      -20.83820
H         68.92554       31.21016      -18.85353
H         69.39504       28.84932      -20.47427
H         69.96205       30.88971      -21.40160
H         71.42341       29.86371      -21.25335
N         71.44259       29.06210      -17.76897
C         72.29987       28.20591      -16.96398
C         71.55774       27.10544      -16.22462
O         72.22648       26.22078      -15.70966
H         71.34889       30.04187      -17.48200
H         72.84097       28.81171      -16.20531
H         73.06169       27.75658      -17.63783
N         70.19863       27.10452      -16.08512
C         69.45469       26.03693      -15.41802
C         68.79615       26.55273      -14.15186
O         68.23593       27.63918      -14.16114
C         68.37615       25.46070      -16.36526
C         68.99668       24.87482      -17.63709
O         67.67059       24.44642      -15.69524
H         69.65378       27.89500      -16.45970
H         70.12507       25.19405      -15.13788
H         67.67487       26.28260      -16.64292
H         66.82103       24.30871      -16.19040
H         68.20015       24.46146      -18.29055
H         69.52894       25.65779      -18.20638
H         69.71081       24.06260      -17.38355
N         68.74668       25.76573      -13.03751
C         68.03518       26.15944      -11.82273
C         68.81436       27.21578      -11.04145
O         68.21989       27.87113      -10.19950
C         67.66963       24.89768      -10.97584
C         66.79688       23.88849      -11.78440
C         66.97961       25.23661       -9.64154
C         65.43549       24.42380      -12.25159
H         69.16410       24.82378      -13.08988
H         67.08183       26.64139      -12.12818
H         68.61699       24.37457      -10.71546
H         66.61738       22.99007      -11.15500
H         67.34716       23.54181      -12.68346
H         66.04799       25.81685       -9.80020
H         66.73731       24.30213       -9.09170
H         67.65523       25.81948       -8.98394
H         65.55131       25.27335      -12.95484
H         64.89262       23.62099      -12.79311
H         64.80833       24.73756      -11.39294
N         70.13154       27.46724      -11.29861
C         70.88226       28.55086      -10.66613
C         72.08691       28.02303       -9.89606
O         72.32828       26.82595       -9.88607
C         71.26477       29.59804      -11.74370
C         72.06187       29.01654      -12.91926
O         70.08390       30.17650      -12.23975
H         70.62530       26.88823      -11.98969
H         70.25560       29.07665       -9.91317
H         71.88298       30.38511      -11.25501
H         70.28734       31.12388      -12.45618
H         72.33370       29.83151      -13.62178
H         72.99011       28.52336      -12.56467
H         71.45251       28.28583      -13.49073
N         72.87241       28.89767       -9.19491
C         74.01492       28.50268       -8.37925
C         73.77282       28.95424       -6.94198
O         73.65193       28.10224       -6.07076
C         75.32207       29.06717       -9.00606
C         76.56501       28.74546       -8.16980
O         75.23316       30.45671       -9.19270
H         72.64219       29.90014       -9.22527
H         74.11800       27.39436       -8.37086
H         75.42856       28.57550      -10.00256
H         75.83417       30.69307       -9.94689
H         76.67316       27.64894       -8.03910
H         77.47079       29.13174       -8.68500
H         76.50337       29.22984       -7.17189
N         73.70736       30.27749       -6.62154
C         73.47518       30.79853       -5.27908
C         72.35352       31.82003       -5.35294
O         72.38693       32.65048       -6.25429
C         74.77704       31.43426       -4.76019
C         74.68849       31.75518       -3.25896
C         76.01704       32.30510       -2.72782
C         75.96558       32.48633       -1.20425
N         77.23017       33.01724       -0.69675
H         73.86292       30.97174       -7.36483
H         73.21576       29.97509       -4.57573
H         75.03713       32.33800       -5.35410
H         75.59415       30.68898       -4.88711
H         74.45409       30.81245       -2.71517
H         73.87622       32.48845       -3.06377
H         76.23412       33.27802       -3.21999
H         76.83591       31.59153       -2.96828
H         75.76686       31.50095       -0.72478
H         75.13956       33.18034       -0.93345
H         77.41039       33.96295       -1.10508
H         77.17273       33.10223        0.34386
H         78.01685       32.37175       -0.93932
N         71.33038       31.84656       -4.45304
C         70.19878       32.75246       -4.63385
C         69.37358       32.31830       -5.84114
O         69.25412       33.12355       -6.75318
C         69.31981       32.92195       -3.37265
C         70.05481       33.70918       -2.27581
C         69.14281       33.98799       -1.11476
O         68.62170       32.97133       -0.40262
O         68.86931       35.13904       -0.81136
H         71.36201       31.21622       -3.63675
H         70.58872       33.77629       -4.84378
H         68.95245       31.95635       -2.97474
H         68.43214       33.52937       -3.66087
H         70.39559       34.68217       -2.69792
H         70.94582       33.15030       -1.92157
N         68.77069       31.09772       -5.97701
C         68.82331       29.99604       -5.03660
H         67.79336       29.74419       -4.70867
H         69.26441       29.11011       -5.53930
H         69.42906       30.19778       -4.14267
H         68.23130       30.92402       -6.83944
Ca        60.36718       27.74328      -15.81369
O         58.81491       30.77122      -15.06242
H         59.22734       31.40543      -15.70146
H         58.22007       31.33306      -14.50599
O         60.41918       28.41293      -12.60090
H         61.40519       28.40451      -12.69189
H         60.25476       28.82820      -11.71710
O         61.81018       25.61543      -14.22442
H         61.05202       25.09203      -14.58741
H         62.58469       25.34461      -14.77782

Ca 1.0



