%chk=apoCaM-CA-Ng.loop1.water5.frame626.chk
%nprocshared=20
%mem=10GB
%nosave
#b3lyp/svp scf=(tight,noincore,xqc) Test 
#IOP(5/87=12) Density=Current Pop=(MK,readradii) iop(6/33=2) iop(6/42=6)

apoCaM-CA-Ng.loop1.water5.frame626 

   0  1 
C         84.17009       32.43988       19.43702
C         83.10811       33.00307       20.33754
O         82.07763       33.42963       19.83621
H         85.05078       32.08855       20.01531
H         83.75787       31.58065       18.86747
H         84.50624       33.22117       18.72361
N         83.28458       33.02457       21.68964
C         82.27922       33.53978       22.61872
C         82.02141       35.03641       22.42084
O         82.60950       35.64408       21.53643
C         82.65724       33.19923       24.08319
C         83.85654       33.93120       24.61835
O         83.73328       34.66787       25.58354
O         85.07647       33.74117       24.08511
H         84.15206       32.61685       22.06826
H         81.32814       32.99594       22.42425
H         82.83623       32.10562       24.16984
H         81.79086       33.42396       24.74017
N         81.13827       35.69360       23.22861
C         80.76296       37.10144       23.06742
C         81.94064       38.07315       23.02829
O         81.76078       39.18241       22.54564
C         79.77408       37.52135       24.18525
C         80.42268       37.45620       25.58877
C         79.43704       37.81896       26.70371
C         80.12710       37.74015       28.07566
N         79.20429       38.09254       29.15352
H         80.67245       35.15005       23.96788
H         80.25442       37.17661       22.08070
H         78.89349       36.84226       24.15521
H         79.41420       38.55611       23.99614
H         81.28145       38.15992       25.63191
H         80.80394       36.43234       25.78786
H         78.57924       37.11122       26.68412
H         79.05710       38.85038       26.53942
H         80.99444       38.43734       28.09635
H         80.50709       36.70710       28.24380
H         78.85833       39.07092       29.02418
H         78.39607       37.42900       29.16726
H         79.70815       38.03071       30.06795
N         83.15087       37.74647       23.55623
C         84.32499       38.61349       23.53326
C         85.47305       37.84664       22.88846
O         85.71299       36.72425       23.30694
C         84.63653       39.10441       24.96525
C         84.77678       38.02950       26.00981
O         83.90587       37.97896       27.03634
O         85.68997       37.22489       25.96039
H         83.24807       36.83675       24.02898
H         84.13346       39.54324       22.96332
H         83.78881       39.75550       25.27444
H         85.55304       39.73336       24.95371
N         86.25100       38.32361       21.87143
C         86.22248       39.65786       21.29170
C         84.98798       39.98537       20.48915
O         84.04903       39.20274       20.44219
H         86.99564       37.69903       21.52176
H         87.07749       39.73002       20.58327
H         86.37575       40.41940       22.08513
N         84.96517       41.15222       19.77997
C         83.83757       41.58473       18.96181
C         84.18863       41.45963       17.49537
O         85.32086       41.12178       17.18109
C         83.46891       43.03941       19.30229
C         83.17922       43.21153       20.76576
O         82.17217       42.53014       21.34328
O         83.86009       43.96937       21.43883
H         85.80948       41.74664       19.78639
H         82.96152       40.92314       19.14280
H         82.57805       43.35615       18.71949
H         84.31887       43.70150       19.01928
N         83.23175       41.63712       16.53983
C         83.46661       41.34581       15.13435
C         82.85778       40.01198       14.74779
O         83.08240       39.57660       13.62738
H         82.26995       41.86978       16.83162
H         84.55362       41.26409       14.92987
H         83.08020       42.17147       14.49986
N         82.09931       39.28709       15.62407
C         81.61777       37.94616       15.33397
C         82.79616       36.99292       15.32246
O         83.49279       36.88165       16.32222
C         80.58042       37.48924       16.39141
C         79.30527       38.33583       16.31378
O         80.22239       36.14789       16.16431
H         81.86778       39.67929       16.54621
H         81.09870       37.93769       14.34894
H         81.01161       37.60695       17.41600
H         80.70097       35.59530       16.83699
H         79.51998       39.41027       16.48762
H         78.83513       38.22514       15.31195
H         78.57842       37.99476       17.08052
N         83.04139       36.23584       14.22211
C         84.08867       35.22381       14.16749
C         85.43566       35.88343       13.92540
O         86.37335       35.58984       14.65625
C         83.73595       34.13011       13.11803
C         82.30445       33.54383       13.33529
C         84.77921       32.99687       13.13869
C         82.02581       32.98036       14.73626
H         82.40885       36.33679       13.41515
H         84.13156       34.68487       15.14023
H         83.75080       34.58179       12.10154
H         82.12286       32.74449       12.58525
H         81.54301       34.32782       13.14494
H         84.52151       32.22524       12.38240
H         85.78860       33.38668       12.89385
H         84.82820       32.51233       14.13654
H         82.71450       32.14930       14.98602
H         82.10671       33.77215       15.50996
H         80.98562       32.59372       14.77526
N         85.58134       36.85041       12.97199
C         86.82213       37.59792       12.76363
C         87.16283       37.68430       11.27937
O         86.37126       37.25106       10.44912
C         86.66512       39.00586       13.40463
C         86.49514       38.88693       14.92283
O         87.79319       39.80332       13.16032
H         84.74508       37.14216       12.44047
H         87.67418       37.08311       13.26137
H         85.76646       39.49374       12.95790
H         87.51228       40.74835       13.28451
H         86.42499       39.89665       15.36333
H         85.57876       38.32397       15.18882
H         87.37881       38.38103       15.36895
N         88.34537       38.23510       10.87717
C         88.74318       38.40339        9.48713
C         90.00769       37.59950        9.21902
O         89.96621       36.70739        8.38553
C         88.89554       39.91912        9.16729
C         89.32850       40.17246        7.71842
O         89.81303       40.52728       10.04077
H         89.01286       38.55508       11.59447
H         87.94918       38.01570        8.80837
H         87.89054       40.37989        9.32050
H         89.59847       41.49673       10.06437
H         90.33378       39.74047        7.52674
H         88.59781       39.72753        7.01149
H         89.38113       41.26623        7.52836
N         91.17433       37.88274        9.87016
C         92.43860       37.20603        9.60607
C         93.04027       36.70317       10.90827
O         93.04740       37.44434       11.88145
C         93.40012       38.21657        8.94391
C         94.75202       37.60977        8.51234
C         94.61904       36.60209        7.35572
C         95.98747       36.03545        6.95540
N         95.86613       35.13183        5.81126
H         91.19038       38.65373       10.55051
H         92.29045       36.36491        8.90065
H         93.59276       39.04477        9.66100
H         92.91363       38.65784        8.04575
H         95.25187       37.13762        9.38465
H         95.39945       38.44244        8.16147
H         94.16545       37.11941        6.48171
H         93.96922       35.75043        7.64127
H         96.42067       35.48122        7.81645
H         96.67773       36.86629        6.69044
H         95.21336       34.34578        6.03499
H         95.51319       35.65689        4.97815
H         96.80749       34.73636        5.58609
N         93.66763       35.49297       10.96889
C         94.34681       35.03841       12.17975
C         93.35436       34.73296       13.29506
O         93.46317       35.38004       14.32732
C         95.30763       33.85289       11.91547
C         96.49580       34.28333       11.03873
C         97.44642       33.14350       10.81151
O         97.69358       32.76756        9.67689
O         98.04524       32.54126       11.85727
H         93.72899       34.92502       10.11076
H         95.00784       35.86196       12.53880
H         94.79207       32.99335       11.44613
H         95.71919       33.51178       12.89147
H         97.05196       35.10318       11.54448
H         96.12903       34.66123       10.06215
N         92.36976       33.78755       13.23128
C         92.05400       32.94692       12.09497
H         90.99292       33.10529       11.81238
H         92.66066       33.15914       11.20252
H         92.19255       31.88224       12.37826
H         91.78063       33.65276       14.06775
Ca        86.86127       34.69573       25.08204
O         88.40025       35.53794       27.71934
H         87.72498       36.16968       28.07363
H         88.77397       35.09620       28.52253
O         88.53204       37.28028       24.88445
H         89.16366       37.26188       24.12259
H         89.11014       37.32813       25.68665
O         87.09866       32.07236       26.64650
H         87.89901       31.89815       26.09008
H         87.46040       32.43189       27.49522
O         85.39246       34.58142       28.03667
H         84.70313       35.24741       28.28497
H         85.39820       33.93580       28.78698
O         89.48239       33.78278       24.23127
H         90.16647       33.45560       24.86737
H         89.82135       34.66262       23.92919

Ca 1.0



