%chk=apoCaM-CA-Ng.loop4.water6.frame1001.chk
%nprocshared=20
%mem=10GB
%nosave
#b3lyp/svp scf=(tight,noincore,xqc) Test 
#IOP(5/87=12) Density=Current Pop=(MK,readradii) iop(6/33=2) iop(6/42=6)

apoCaM-CA-Ng.loop4.water6.frame1001 

   -3  1 
C         37.71292       56.32627       39.27941
C         38.92266       57.14708       38.92131
O         39.46113       56.88949       37.85961
H         36.94920       56.45641       38.48365
H         38.00815       55.25621       39.31197
H         37.23546       56.56796       40.24035
N         39.44187       58.16056       39.67229
C         38.93057       58.68358       40.93578
C         38.42593       60.10547       40.73859
O         38.04608       60.73958       41.71295
C         40.05638       58.62022       41.98454
C         40.56025       57.20950       42.07064
O         41.80015       56.90998       41.64277
O         39.80611       56.31025       42.40649
H         40.27280       58.64158       39.29040
H         38.08134       58.09878       41.32775
H         39.69720       58.95884       42.98102
H         40.88177       59.28706       41.66536
N         38.33823       60.64780       39.48578
C         37.76173       61.95499       39.21308
C         38.77937       63.07582       39.37201
O         38.37506       64.22981       39.31962
C         37.09026       61.99774       37.79719
C         38.05620       62.12561       36.57683
C         36.10377       60.82577       37.61063
C         39.08181       61.00966       36.35609
H         38.57099       60.06102       38.68353
H         36.94052       62.11102       39.94889
H         36.47777       62.92670       37.77013
H         38.61641       63.08128       36.65491
H         37.43211       62.19265       35.65868
H         35.36144       60.81278       38.43651
H         35.55279       60.93386       36.65271
H         36.61780       59.84252       37.59332
H         39.82955       60.98642       37.17406
H         38.58828       60.02129       36.25100
H         39.64463       61.21340       35.42062
N         40.11848       62.82002       39.48755
C         41.14336       63.86202       39.50702
C         42.04934       63.67235       40.73084
O         41.78872       62.76510       41.51208
C         41.91420       63.75525       38.16767
C         42.64739       64.99836       37.72649
O         42.51561       66.16915       38.38065
O         43.29609       64.96875       36.69350
H         40.44964       61.84324       39.47526
H         40.66089       64.86202       39.55206
H         41.18048       63.56940       37.35167
H         42.59721       62.87914       38.20789
N         43.13748       64.46665       40.96371
C         44.02502       64.29754       42.10626
C         45.42694       63.92928       41.67716
O         45.69934       63.83013       40.48761
H         43.37323       65.22175       40.31354
H         43.66455       63.48983       42.77801
H         44.05208       65.24060       42.69256
N         46.36212       63.65516       42.63007
C         47.70842       63.17373       42.33281
C         48.76973       64.03670       43.00977
O         48.49415       64.57395       44.07375
C         47.81426       61.70210       42.79202
C         47.59034       61.50770       44.27230
O         46.62862       60.87014       44.66827
O         48.45788       62.01366       45.16872
H         46.07825       63.72350       43.62028
H         47.87883       63.16933       41.23704
H         48.80301       61.27622       42.52335
H         47.04108       61.12908       42.23790
N         50.04302       64.16418       42.53131
C         50.51706       63.63525       41.26186
C         49.95585       64.42522       40.09146
O         49.23355       65.38240       40.33365
H         50.72803       64.67802       43.10828
H         50.28669       62.55392       41.19593
H         51.61382       63.76598       41.24607
N         50.22032       64.13985       38.77962
C         51.00142       63.02713       38.24084
C         50.33792       61.71786       38.60468
O         50.95019       60.85130       39.21272
C         52.50630       63.11224       38.58670
C         53.07514       64.49125       38.20322
C         54.54424       64.65241       38.49876
N         55.14859       65.83449       38.23724
O         55.19340       63.73379       38.97771
H         49.78849       64.75923       38.07518
H         50.94981       63.09707       37.12996
H         53.04491       62.31933       38.02119
H         52.69180       62.91865       39.65622
H         52.53567       65.27599       38.77538
H         52.91211       64.66704       37.11762
H         54.61250       66.62035       37.83940
H         56.15039       65.96917       38.43746
N         49.02964       61.55004       38.26721
C         48.22483       60.38157       38.59459
C         46.75319       60.77293       38.64879
O         46.25455       61.43941       37.75129
C         48.41928       59.18380       37.60961
C         49.78459       58.50111       37.75624
C         48.18775       59.56452       36.13914
H         48.55871       62.34627       37.81022
H         48.49309       60.02349       39.61402
H         47.66916       58.40864       37.88975
H         49.81829       57.58853       37.12217
H         50.61084       59.16514       37.43659
H         49.94149       58.18224       38.80943
H         48.27968       58.66532       35.49294
H         47.17218       59.97273       35.98539
H         48.93363       60.31771       35.80824
N         45.98335       60.31469       39.67133
C         44.53942       60.51866       39.78664
C         43.70977       59.87294       38.65916
O         42.49207       59.95204       38.74509
C         44.05568       60.02375       41.17649
C         44.48433       58.61356       41.52296
N         45.16914       58.36852       42.66506
O         44.22263       57.68984       40.77178
H         46.45842       59.77083       40.40600
H         44.31588       61.60664       39.75794
H         42.95287       60.10419       41.23053
H         44.45971       60.71225       41.95019
H         45.39395       59.12858       43.32020
H         45.46510       57.41292       42.90774
N         44.26135       59.27091       37.56122
C         43.48076       58.66071       36.48666
C         44.11020       57.33018       36.08940
O         45.07555       56.91639       36.71935
C         43.25428       59.67939       35.34064
C         44.47536       60.15856       34.59273
C         45.16659       59.30416       33.71924
C         44.89847       61.49339       34.71509
C         46.26275       59.76850       32.98854
C         45.99908       61.95672       33.98778
C         46.68428       61.09443       33.11986
O         47.73972       61.52944       32.40299
H         45.27635       59.25439       37.43673
H         42.45225       58.43351       36.84522
H         42.74368       60.55329       35.80397
H         42.53600       59.27136       34.59703
H         44.84632       58.28714       33.57873
H         44.37569       62.17859       35.37090
H         46.77769       59.09820       32.31151
H         46.31260       62.98726       34.09389
H         48.05781       62.44171       32.45791
N         43.61459       56.59552       35.05700
C         44.13555       55.28252       34.69471
C         42.96161       54.33406       34.66407
O         42.62182       53.78934       33.62250
C         44.92151       55.38982       33.36805
C         45.59739       54.07924       32.92072
C         46.52465       53.52681       33.96887
O         46.33453       52.41169       34.42807
O         47.56422       54.25994       34.41137
H         42.83606       56.97744       34.49818
H         44.85052       54.91618       35.46256
H         45.72817       56.14119       33.51439
H         44.25526       55.75759       32.55775
H         46.18586       54.28161       32.00053
H         44.83157       53.31906       32.66552
N         42.24723       54.14515       35.80610
C         41.01216       53.37957       35.84374
C         40.00496       54.06366       34.93882
O         39.47200       53.42762       34.04090
C         40.45148       53.25213       37.28266
C         41.46109       52.59386       38.24434
C         40.82398       52.17610       39.53977
O         39.99054       51.28498       39.53398
O         41.15753       52.73919       40.71737
H         42.57615       54.61021       36.66208
H         41.20703       52.34388       35.48372
H         39.53867       52.61968       37.21845
H         40.15745       54.24090       37.69659
H         42.29397       53.29610       38.44405
H         41.88366       51.67399       37.78489
N         39.75835       55.39559       35.09241
C         38.87279       56.16444       34.24406
H         38.08071       56.63143       34.86569
H         39.45622       56.97056       33.74911
H         38.39485       55.54401       33.45846
H         40.26023       55.90832       35.82887
Ca        42.08968       54.76767       41.00585
O         44.82418       53.96423       39.16326
H         45.26262       54.33783       38.35807
H         44.75680       52.99305       38.98208
O         43.36142       55.80035       43.95381
H         42.48368       56.06668       44.32664
H         43.94807       55.70290       44.74495
O         42.64276       56.24360       38.56191
H         41.68781       56.02162       38.68056
H         42.71455       57.17087       38.89117
O         40.65681       53.30924       43.65641
H         41.13641       54.13079       43.38551
H         39.94332       53.20442       42.97812
O         46.10662       54.80767       41.82689
H         46.45016       55.22683       42.65499
H         46.58634       53.94333       41.77191
O         43.84144       52.88052       42.72889
H         44.33607       52.08752       42.40254
H         43.66827       52.69154       43.68519

Ca 1.0



