%chk=apoCaM-CA-Ng.loop4.water4.frame953.chk
%nprocshared=20
%mem=10GB
%nosave
#b3lyp/svp scf=(tight,noincore,xqc) Test 
#IOP(5/87=12) Density=Current Pop=(MK,readradii) iop(6/33=2) iop(6/42=6)

apoCaM-CA-Ng.loop4.water4.frame953 

   -3  1 
C         86.29957       97.58352       59.70384
C         85.79552       98.98353       59.52506
O         85.40259       99.35190       58.42825
H         87.35656       97.61660       60.04617
H         85.68922       97.06282       60.47128
H         86.24968       97.01687       58.75123
N         85.80502       99.83017       60.58879
C         85.39464      101.22989       60.56345
C         83.90889      101.36903       60.24873
O         83.53707      102.21332       59.44571
C         86.24643      102.04363       59.56430
C         87.69760      101.66017       59.55532
O         88.15254      101.14484       58.54644
O         88.52447      101.86612       60.59648
H         86.15622       99.46799       61.48970
H         85.56927      101.62514       61.58936
H         86.12111      103.13333       59.73806
H         85.86963      101.83209       58.53844
N         83.00134      100.54191       60.83640
C         81.56245      100.60331       60.58818
C         80.90691      100.80113       61.94786
O         81.12234       99.93121       62.78266
C         81.07749       99.25376       59.94334
C         81.88414       98.81365       58.69122
C         79.56975       99.26031       59.62972
C         81.78443       99.73923       57.48133
H         83.34862       99.81808       61.48479
H         81.33402      101.43825       59.90197
H         81.25002       98.44828       60.69119
H         81.53763       97.80532       58.37515
H         82.95160       98.71347       58.96937
H         78.97649       99.47623       60.54152
H         79.31761      100.01175       58.85648
H         79.25466       98.26677       59.24612
H         82.15897      100.73720       57.74808
H         82.41255       99.33922       56.65680
H         80.74377       99.81652       57.10666
N         80.13767      101.86308       62.33633
C         79.67504      103.02485       61.56719
C         78.92849      103.94055       62.53925
O         78.01067      103.45991       63.19252
C         78.73524      102.58157       60.42187
C         78.02199      103.72357       59.76312
O         77.10793      104.41569       60.45959
O         78.21079      103.98696       58.58859
H         79.84047      101.81983       63.32540
H         80.53814      103.58174       61.13844
H         77.95791      101.88885       60.80698
H         79.31974      102.06240       59.64968
N         79.26444      105.25667       62.69976
C         78.67519      106.07747       63.75245
C         77.80689      107.22939       63.29150
O         77.28226      107.89600       64.17286
H         79.99746      105.67333       62.10497
H         79.49968      106.47917       64.38157
H         78.03740      105.46235       64.42018
N         77.60884      107.56018       61.98001
C         76.79494      108.71869       61.59002
C         75.73043      108.43919       60.53183
O         74.91852      109.32639       60.30656
C         77.71773      109.88489       61.17771
C         78.81257      109.49491       60.21696
O         78.55878      109.05145       59.11230
O         80.09922      109.62764       60.59048
H         78.11373      107.03646       61.25068
H         76.20927      109.08361       62.46303
H         78.21671      110.25238       62.09984
H         77.11647      110.72678       60.76879
N         75.64601      107.26937       59.83907
C         74.62220      107.01354       58.83341
C         74.72165      107.90370       57.60480
O         73.86536      107.77442       56.74265
H         76.31618      106.52529       60.02857
H         73.62077      107.13531       59.30082
H         74.70709      105.96068       58.48358
N         75.74011      108.80274       57.43429
C         75.89885      109.69603       56.29074
C         76.15484      108.95513       54.98449
O         76.22429      109.61746       53.95788
C         74.70456      110.68359       56.19537
C         74.55203      111.56477       57.45616
C         75.67664      112.55706       57.67819
N         75.66804      113.34811       58.77556
O         76.58820      112.66692       56.87132
H         76.45812      108.87993       58.15276
H         76.81535      110.30055       56.44737
H         73.76404      110.11590       56.04433
H         74.82345      111.35447       55.31716
H         74.45847      110.91141       58.34648
H         73.61150      112.14921       57.36885
H         74.91064      113.27725       59.47036
H         76.42412      114.03141       58.93351
N         76.36443      107.60452       54.94023
C         76.61280      106.87038       53.70233
C         77.98270      106.19577       53.67428
O         78.32226      105.66363       52.62651
C         75.48587      105.82216       53.46350
C         75.36399      104.80204       54.61408
C         74.13533      106.51458       53.23649
H         76.35513      107.06537       55.81412
H         76.61396      107.57055       52.83800
H         75.72361      105.26002       52.53336
H         76.32826      104.27855       54.78272
H         75.05102      105.28813       55.56196
H         74.59680      104.03846       54.36690
H         74.20214      107.20127       52.36605
H         73.34928      105.75987       53.02050
H         73.82886      107.09905       54.12862
N         78.80544      106.13384       54.76565
C         80.08152      105.42116       54.75463
C         81.21705      106.28840       55.30107
O         80.97114      107.29238       55.95351
C         79.90714      104.15371       55.61563
C         81.17411      103.36403       55.79338
N         81.74872      103.27703       57.01439
O         81.70202      102.82646       54.83135
H         78.49733      106.53269       55.66258
H         80.35073      105.11521       53.71946
H         79.12408      103.49651       55.17611
H         79.55201      104.48514       56.60896
H         81.32120      103.72742       57.83791
H         82.64293      102.78417       57.13002
N         82.50926      105.92443       55.05322
C         83.68608      106.60016       55.59330
C         84.93605      106.06984       54.91339
O         85.11225      104.86048       54.84204
C         83.82344      106.38630       57.12272
C         85.13259      106.98005       57.61677
C         85.40017      108.35145       57.45839
C         86.12049      106.15488       58.18413
C         86.63941      108.87980       57.83121
C         87.35480      106.68942       58.56769
C         87.62404      108.04803       58.38119
O         88.83141      108.54005       58.72544
H         82.66063      105.12379       54.42250
H         83.61130      107.68841       55.38386
H         83.80650      105.29365       57.33436
H         82.97070      106.84910       57.66181
H         84.66011      109.00843       57.02125
H         85.94618      105.09471       58.31156
H         86.83652      109.93361       57.68129
H         88.11020      106.04514       58.99672
H         89.06748      109.46851       58.58667
N         85.88064      106.94078       54.45217
C         87.09401      106.51139       53.78011
C         88.31252      106.83261       54.64073
O         88.68780      107.99561       54.69656
C         87.16157      107.22160       52.41295
C         88.40081      106.85873       51.58664
C         88.38820      107.59908       50.28000
O         89.37941      108.46069       49.98180
O         87.47901      107.42686       49.48352
H         85.74269      107.95257       54.59858
H         87.03849      105.43026       53.58777
H         87.15568      108.32366       52.57786
H         86.24670      106.95761       51.83855
H         88.42012      105.76715       51.38857
H         89.32041      107.13652       52.14603
N         88.98422      105.89957       55.38516
C         88.53399      104.52628       55.61813
C         88.55673      103.63883       54.39058
O         89.10205      104.02233       53.36483
C         89.33301      103.90226       56.78032
C         90.81463      103.58638       56.47668
C         91.52740      103.35237       57.77974
O         91.93049      102.12598       58.15720
O         91.61132      104.27023       58.57968
H         89.79030      106.24179       55.93274
H         87.48168      104.60273       55.96898
H         88.84651      102.96781       57.11485
H         89.26564      104.62086       57.62261
H         91.32091      104.42912       55.96292
H         90.86234      102.68906       55.82103
N         87.92289      102.43423       54.42496
C         87.83368      101.57413       53.26654
H         87.31297      102.10803       52.44219
H         88.84834      101.27246       52.93478
H         87.24858      100.66314       53.51673
H         87.45438      102.13091       55.29287
Ca        90.61521      101.43441       59.85279
O         90.74886      104.09991       61.61308
H         90.11218      104.29134       60.87902
H         91.59002      103.84760       61.15596
O         90.89573       99.18498       57.81765
H         90.10766       99.09129       57.22573
H         91.60805       98.66172       57.37170
O         90.20284      100.94253       63.02948
H         90.87712      100.86329       63.74994
H         89.81057      101.84297       63.15508
O         93.29876      101.38680       61.39624
H         93.62072      100.56635       61.84719
H         93.22271      102.05565       62.12229

Ca 1.0



