%chk=apoCaM-CA-Ng.loop2.water4.frame293.chk
%nprocshared=20
%mem=10GB
%nosave
#b3lyp/svp scf=(tight,noincore,xqc) Test 
#IOP(5/87=12) Density=Current Pop=(MK,readradii) iop(6/33=2) iop(6/42=6)

apoCaM-CA-Ng.loop2.water4.frame293 

   -2  1 
C         61.54216       66.93993       31.87573
C         62.24015       67.99176       32.68945
O         63.46104       67.97540       32.74787
H         60.44028       67.07885       31.88951
H         61.88971       66.99361       30.82290
H         61.77511       65.93458       32.28533
N         61.52115       68.93352       33.36220
C         62.11987       69.98420       34.17546
C         61.74254       69.73817       35.62100
O         60.56296       69.60168       35.91882
C         61.63308       71.35980       33.67915
C         62.28897       72.52723       34.37726
O         63.22266       72.34385       35.33186
O         61.98233       73.66406       34.05746
H         60.49061       68.89558       33.31354
H         63.22809       69.96942       34.07811
H         60.53080       71.43219       33.80569
H         61.86628       71.44762       32.59564
N         62.70850       69.65242       36.57913
C         62.40962       69.30646       37.96263
C         62.13079       67.81302       38.11867
O         61.80426       67.39413       39.21997
C         63.59365       69.69227       38.85807
H         63.68873       69.83530       36.31261
H         61.53312       69.90217       38.30226
H         64.50738       69.13192       38.56337
H         63.79633       70.78080       38.76141
H         63.36581       69.47649       39.92351
N         62.29918       66.94306       37.07534
C         62.16468       65.49418       37.15923
C         63.17192       64.94900       38.16557
O         62.81876       64.20888       39.07373
C         60.69444       65.09746       37.43096
C         60.40145       63.63614       37.21068
O         59.15369       63.17527       37.41748
O         61.26284       62.87073       36.80914
H         62.60402       67.29933       36.15953
H         62.44099       65.09399       36.15681
H         60.04081       65.65813       36.72837
H         60.41206       65.38001       38.46692
N         64.46496       65.36102       38.07663
C         65.51303       65.00159       39.00971
C         66.07084       63.62526       38.76360
O         66.23782       62.87016       39.70877
H         64.71258       66.04277       37.34265
H         65.19303       65.16159       40.06376
H         66.36802       65.68707       38.82492
N         66.45271       63.27058       37.50282
C         67.23678       62.07633       37.19637
C         68.46464       62.50210       36.37894
O         68.58383       63.67358       36.05189
C         66.35409       61.06118       36.43804
C         67.01181       59.70389       36.31938
N         67.32138       59.17541       35.11377
O         67.28109       59.07866       37.33423
H         66.21650       63.90458       36.72488
H         67.57525       61.60159       38.14306
H         66.08598       61.47690       35.44277
H         65.41082       60.90529       37.00650
H         67.13167       59.68927       34.24901
H         67.77711       58.25405       35.04343
N         69.41955       61.60092       36.00794
C         70.58271       61.95344       35.20961
C         70.60278       61.15675       33.92451
O         70.56285       59.93718       33.98346
H         69.34425       60.62384       36.31102
H         71.49328       61.70955       35.79649
H         70.62079       63.04016       34.98119
N         70.72892       61.78748       32.71937
C         70.86590       61.05494       31.46252
C         69.56817       60.37223       31.05984
O         69.59047       59.16005       30.89084
C         71.47304       61.92640       30.32188
C         70.65059       63.13563       29.85798
O         72.77261       62.33696       30.67158
H         70.81728       62.81284       32.71455
H         71.63654       60.26294       31.61183
H         71.58174       61.26516       29.43329
H         72.70102       63.00700       31.39934
H         69.68742       62.81557       29.42843
H         70.47505       63.85288       30.68502
H         71.20035       63.66118       29.04869
N         68.40364       61.06937       30.88843
C         67.15450       60.43901       30.45457
C         66.13170       60.44972       31.56891
O         66.32614       61.14841       32.55499
C         66.64529       61.03534       29.10518
C         66.45650       62.57964       29.06768
C         67.62894       60.64262       27.98750
C         65.39239       63.13563       30.00952
H         68.39425       62.07848       31.09585
H         67.33192       59.35442       30.28141
H         65.67269       60.55772       28.85268
H         66.14119       62.86109       28.03875
H         67.41452       63.09987       29.26742
H         67.72834       59.53766       27.93034
H         67.26289       60.99930       27.00125
H         68.63472       61.07682       28.16664
H         64.41103       62.65643       29.81171
H         65.67578       63.00177       31.06775
H         65.29495       64.22932       29.83838
N         65.07064       59.58839       31.53288
C         64.27386       59.31948       32.72489
C         63.85774       57.84373       32.77631
O         62.70329       57.54328       33.03131
C         63.10790       60.33277       32.83024
C         62.34624       60.23047       34.12722
O         62.67464       59.42504       34.98440
O         61.24933       60.97831       34.33735
H         64.98173       58.95595       30.72125
H         64.92831       59.44898       33.61135
H         62.40972       60.15473       31.98164
H         63.49938       61.36851       32.74621
N         64.78340       56.86578       32.54663
C         64.52453       55.42378       32.63257
C         63.31029       54.99855       31.79495
O         63.28453       55.32665       30.61644
C         65.77084       54.65595       32.11712
C         65.58166       53.15404       32.11997
C         65.55668       52.42687       33.32218
C         65.41385       52.46904       30.90303
C         65.35467       51.04166       33.30479
C         65.20533       51.08777       30.89048
C         65.17469       50.37402       32.09015
H         65.73651       57.16939       32.29280
H         64.36833       55.17793       33.69903
H         66.67820       54.91512       32.70554
H         65.95263       54.99711       31.07374
H         65.69026       52.93149       34.27087
H         65.42478       53.00663       29.96316
H         65.33259       50.48495       34.23270
H         65.06303       50.57233       29.94936
H         65.01114       49.30407       32.07720
N         62.29263       54.21751       32.30089
C         61.19801       53.68011       31.49146
C         60.17069       54.68792       31.01228
O         59.20319       54.26643       30.39286
C         60.47957       52.70821       32.44169
C         61.59774       52.26268       33.35038
C         62.29095       53.59261       33.61161
H         61.64737       53.11721       30.64170
H         59.76893       53.27516       33.09024
H         59.91276       51.89925       31.93247
H         61.26291       51.73059       34.26607
H         62.28193       51.60214       32.77013
H         61.67911       54.21665       34.30045
H         63.27892       53.39642       34.05489
N         60.27020       56.01393       31.30511
C         59.21066       56.97202       31.03419
C         59.58908       57.94355       29.92833
O         58.75374       58.76668       29.57748
C         58.88983       57.76273       32.32084
C         58.54814       56.89422       33.54932
C         58.23052       57.80763       34.70131
O         59.06648       57.89573       35.75003
O         57.29973       58.59209       34.61573
H         61.10276       56.36471       31.78259
H         58.29090       56.44411       30.70038
H         58.03778       58.44472       32.10702
H         59.77561       58.38726       32.58371
H         59.42834       56.26479       33.81002
H         57.68116       56.23182       33.34716
N         60.80906       57.91925       29.31946
C         61.14447       58.84087       28.25633
H         62.18324       58.65869       27.90890
H         60.45152       58.69556       27.40001
H         61.06802       59.88715       28.62170
H         61.52741       57.23897       29.60368
Ca        59.94505       59.96146       35.85802
O         58.34741       60.12206       38.51169
H         57.52877       60.67390       38.43652
H         58.08058       59.23426       38.16363
O         62.18604       60.81838       38.48472
H         62.50141       60.19742       39.18694
H         62.81471       61.58129       38.53105
O         61.48667       57.94034       37.64999
H         62.41694       58.19709       37.42894
H         61.50776       57.74066       38.61930
O         57.85492       61.74789       34.45752
H         58.47882       61.54428       33.71605
H         57.03239       61.24461       34.23360

Ca 1.0



