%chk=apoCaM-CA-Ng.loop4.water3.frame329.chk
%nprocshared=20
%mem=10GB
%nosave
#b3lyp/svp scf=(tight,noincore,xqc) Test 
#IOP(5/87=12) Density=Current Pop=(MK,readradii) iop(6/33=2) iop(6/42=6)

apoCaM-CA-Ng.loop4.water3.frame329 

   -3  1 
C         57.16370       54.44318       60.63224
C         57.38316       53.44141       59.54003
O         58.51508       53.31714       59.10249
H         56.11175       54.43759       60.98146
H         57.82290       54.18948       61.49133
H         57.42485       55.45941       60.27046
N         56.35875       52.65786       59.08054
C         56.52510       51.58950       58.09834
C         57.48895       50.55715       58.64233
O         58.62684       50.49388       58.21698
C         56.70011       52.09821       56.64004
C         57.72340       53.16458       56.37869
O         58.91588       52.92191       56.44233
O         57.31298       54.39809       56.01910
H         55.42483       52.77298       59.49940
H         55.56608       51.03094       58.01364
H         55.72045       52.54636       56.36323
H         56.86573       51.24106       55.94940
N         57.04702       49.76228       59.66841
C         57.76814       48.74653       60.43867
C         58.04451       47.46533       59.64573
O         57.59328       46.41668       60.08691
C         58.98139       49.32177       61.22138
C         59.57619       48.29982       62.23857
C         58.60409       50.62942       61.94657
C         58.61608       47.82997       63.34534
H         56.07631       49.92151       59.97879
H         57.05264       48.43985       61.22845
H         59.77124       49.57456       60.49979
H         60.45634       48.76168       62.73708
H         59.93711       47.40303       61.69403
H         58.30635       51.40555       61.21539
H         57.75458       50.47493       62.64296
H         59.47052       51.03147       62.51318
H         58.26905       48.67899       63.96947
H         57.73715       47.29672       62.93173
H         59.14098       47.11384       64.01100
N         58.71479       47.45263       58.45934
C         58.88133       46.24748       57.66109
C         59.86714       45.27034       58.27420
O         59.51775       44.09845       58.31847
C         59.22226       46.57285       56.19222
C         58.07454       47.30071       55.53071
O         56.97105       46.77948       55.46926
O         58.25553       48.51763       54.98955
H         59.06637       48.32164       58.05839
H         57.89974       45.72103       57.59402
H         59.36690       45.62274       55.63078
H         60.15704       47.16581       56.12240
N         61.10003       45.58828       58.77169
C         61.69156       46.92605       58.87799
C         63.05304       46.87781       59.57923
O         63.40797       45.81536       60.07133
H         61.63578       44.78052       59.12129
H         61.03440       47.56126       59.50382
H         61.78834       47.35648       57.86604
N         63.91179       47.93181       59.73130
C         63.86978       49.29636       59.21401
C         62.66272       50.12816       59.68130
O         61.52061       49.85736       58.92296
C         64.06463       49.36088       57.68885
C         64.42565       50.75974       57.24078
O         65.50723       50.96999       56.71622
O         63.57932       51.78861       57.42933
H         64.76408       47.72643       60.27909
H         64.78271       49.78556       59.61534
H         63.16185       49.01401       57.14938
H         64.90739       48.68917       57.42056
N         62.36543       50.11187       61.12412
C         63.53597       50.41198       61.96637
C         63.95429       49.19985       62.75555
O         63.20100       48.24045       62.85093
H         61.66029       50.86926       61.27945
H         63.28884       51.18398       62.72563
H         64.37498       50.85934       61.39735
N         65.14745       49.20539       63.40501
C         65.51372       48.20599       64.40137
C         64.67570       48.41857       65.63821
O         64.20499       47.44666       66.21292
C         66.99375       48.34963       64.81492
C         67.98251       47.75254       63.79772
C         67.96624       46.23190       63.76010
N         68.92628       45.56466       63.08170
O         67.12284       45.59330       64.37400
H         65.78028       50.00699       63.25352
H         65.34532       47.17856       64.01808
H         67.18151       47.81477       65.77359
H         67.21954       49.42366       64.99708
H         68.99710       48.04425       64.13895
H         67.82201       48.17523       62.78146
H         69.67476       46.07436       62.59170
H         68.94152       44.53323       63.07983
N         64.43036       49.68330       66.08515
C         63.64915       49.97603       67.27720
C         64.34950       50.97231       68.19855
O         63.85013       51.16417       69.29915
C         62.21900       50.42306       66.88889
C         61.48160       49.27362       66.17823
C         62.21714       51.67575       66.00052
H         64.75588       50.47227       65.50991
H         63.54103       49.04769       67.88371
H         61.66019       50.64530       67.82477
H         61.48334       48.36284       66.81666
H         60.42670       49.55070       65.97763
H         61.96631       49.02322       65.21124
H         61.17396       51.98062       65.77619
H         62.73153       52.51755       66.50836
H         62.72763       51.47663       65.03600
N         65.52728       51.59026       67.86503
C         66.32389       52.34459       68.82571
C         66.63928       53.77693       68.38382
O         67.31260       54.46416       69.13940
C         67.63467       51.55430       69.03983
C         67.36690       50.09434       69.34360
N         66.64005       49.72455       70.42304
O         67.79331       49.23686       68.58337
H         65.95900       51.43798       66.94507
H         65.79782       52.41189       69.80233
H         68.23258       52.00662       69.85884
H         68.23352       51.59992       68.10494
H         66.25884       50.42798       71.07069
H         66.44437       48.72808       70.60214
N         66.20977       54.30164       67.19399
C         66.58417       55.64656       66.72495
C         65.87452       56.02983       65.44208
O         65.65005       55.16811       64.60911
C         68.12092       55.76933       66.50492
C         68.70365       54.54384       65.82386
C         69.48320       53.66408       66.59206
C         68.45644       54.22810       64.47351
C         69.96347       52.47535       66.04692
C         68.94153       53.03326       63.92713
C         69.68300       52.14730       64.71600
O         70.11641       50.98412       64.19092
H         65.61291       53.72139       66.58874
H         66.27183       56.39584       67.48567
H         68.58018       55.86248       67.50973
H         68.39451       56.70595       65.96899
H         69.69371       53.88152       67.63140
H         67.88619       54.88864       63.83831
H         70.53843       51.80342       66.67033
H         68.72906       52.78826       62.89359
H         70.60503       50.33630       64.71936
N         65.62522       57.35430       65.18399
C         65.12053       57.91348       63.92869
C         63.63061       57.67581       63.68027
O         62.93686       58.66167       63.46466
C         66.04639       57.57167       62.73671
C         67.40761       58.28195       62.90651
C         68.32599       58.03251       61.74763
O         68.01647       58.40092       60.62553
O         69.51440       57.43183       61.94754
H         65.89255       58.03959       65.90693
H         65.18149       59.02324       64.01299
H         65.58379       57.94805       61.79941
H         66.18939       56.47699       62.62566
H         67.89872       57.94230       63.84254
H         67.24822       59.38194       62.98089
N         63.04369       56.44706       63.68614
C         61.61643       56.25980       63.42612
C         60.74577       56.90058       64.49378
O         59.55033       57.03019       64.26522
C         61.27710       54.75549       63.31864
C         62.09037       54.03819       62.22919
C         61.70624       54.42923       60.83532
O         61.74635       55.58677       60.46018
O         61.43265       53.46888       59.95092
H         63.61037       55.62276       63.86867
H         61.38043       56.76408       62.46807
H         60.19271       54.59704       63.12411
H         61.52140       54.28346       64.29617
H         61.92656       52.95113       62.34423
H         63.17759       54.20886       62.34833
N         61.25855       57.31278       65.68755
C         60.44806       57.97357       66.68441
H         59.57551       57.34219       66.95373
H         61.05342       58.15772       67.59706
H         60.09651       58.95029       66.28881
H         62.24951       57.14850       65.91418
Ca        60.96485       51.96030       58.41637
O         61.87439       52.83014       54.97100
H         61.94547       53.76073       54.64227
H         61.27222       52.38563       54.32305
O         61.45742       54.96213       57.12388
H         61.38745       55.76738       56.55378
H         61.32305       55.30719       58.03880
O         60.88529       50.25299       55.95242
H         61.25263       49.88903       55.10889
H         59.91373       50.08307       55.89622

Ca 1.0



