%chk=apoCaM-CA-Ng.loop2.water3.frame150.chk
%nprocshared=20
%mem=10GB
%nosave
#b3lyp/svp scf=(tight,noincore,xqc) Test 
#IOP(5/87=12) Density=Current Pop=(MK,readradii) iop(6/33=2) iop(6/42=6)

apoCaM-CA-Ng.loop2.water3.frame150 

   -2  1 
C         59.27836       47.20566       52.60498
C         59.74005       47.64184       51.24468
O         60.81942       48.20740       51.14045
H         58.28456       46.71196       52.55756
H         60.00794       46.48550       53.03123
H         59.20240       48.08810       53.27402
N         58.97440       47.39936       50.14266
C         59.39176       47.76769       48.79237
C         59.39972       49.28824       48.57552
O         59.78503       49.70264       47.49592
C         58.45786       47.07530       47.76564
C         58.94871       47.07879       46.33619
O         58.25943       46.56565       45.46978
O         60.15305       47.58146       46.00033
H         58.08818       46.88503       50.26776
H         60.41493       47.35578       48.64144
H         57.45099       47.54456       47.82067
H         58.35534       46.00325       48.04329
N         58.96603       50.17354       49.52961
C         58.91232       51.62944       49.37823
C         60.30911       52.29401       49.26765
O         61.05799       52.02096       50.41413
C         57.95380       52.04559       48.25268
H         58.61038       49.81395       50.42502
H         58.46994       52.04703       50.30986
H         58.27322       51.68039       47.25736
H         56.94244       51.63379       48.45513
H         57.87823       53.15342       48.21333
N         61.05399       51.93217       48.05680
C         62.35843       52.62299       47.93177
C         63.50580       51.64698       48.18741
O         64.63798       51.98394       47.86761
C         62.50772       53.26349       46.52646
C         61.45824       54.31472       46.27477
O         61.37484       55.39488       47.07420
O         60.68002       54.19546       45.34218
H         60.44776       52.14259       47.23462
H         62.45912       53.45941       48.66230
H         62.44836       52.47069       45.74866
H         63.49691       53.76363       46.44252
N         63.30670       50.44920       48.82085
C         64.36481       49.48874       49.10597
C         65.54668       50.13806       49.78270
O         66.65094       50.01605       49.26889
H         62.36680       50.20013       49.15773
H         64.70505       49.02296       48.15483
H         63.95624       48.68358       49.75393
N         65.38360       50.92485       50.88321
C         66.48782       51.72548       51.40267
C         67.53636       50.89390       52.12169
O         67.30229       49.74262       52.46212
C         65.97391       52.87489       52.29178
C         65.09134       53.81450       51.50220
N         65.58291       54.50049       50.44147
O         63.92345       53.96022       51.82560
H         64.43066       51.06368       51.25472
H         66.99538       52.18960       50.52792
H         66.82523       53.46706       52.69036
H         65.41273       52.44882       53.15312
H         66.56861       54.40577       50.15735
H         64.97919       55.13606       49.90040
N         68.77152       51.43643       52.30305
C         69.91172       50.74791       52.87887
C         69.83932       50.64186       54.38094
O         69.58381       51.64709       55.02936
H         68.94363       52.38322       51.93015
H         70.80586       51.37785       52.68083
H         70.08806       49.77194       52.37601
N         70.18911       49.48301       55.01195
C         70.33797       49.40980       56.46846
C         69.00753       49.48132       57.21178
O         69.03385       49.61421       58.42905
C         71.17785       48.17715       56.90832
C         70.53579       46.81740       56.59633
O         72.47548       48.24684       56.36737
H         70.47007       48.68274       54.42813
H         70.93503       50.29747       56.77846
H         71.29428       48.22650       58.01339
H         72.42450       48.03475       55.39965
H         69.56021       46.72935       57.10519
H         70.39029       46.67103       55.50677
H         71.19141       46.00386       56.97315
N         67.81279       49.40228       56.56161
C         66.51099       49.53458       57.21341
C         65.76699       50.72053       56.61202
O         66.32349       51.40416       55.75859
C         65.70254       48.19908       57.10893
C         65.45875       47.76429       55.64002
C         66.40147       47.10177       57.92951
C         64.52589       46.55847       55.51101
H         67.81098       49.25498       55.54189
H         66.62379       49.75981       58.29768
H         64.71560       48.35090       57.59119
H         66.42017       47.51858       55.14144
H         64.98243       48.60329       55.08971
H         66.54970       47.44322       58.97678
H         65.79049       46.17885       57.97897
H         67.38420       46.85242       57.49249
H         64.96216       45.65326       55.97910
H         63.54365       46.78078       55.97959
H         64.36338       46.33327       54.43613
N         64.48752       51.00825       56.98463
C         63.70125       52.07589       56.38156
C         63.00223       52.94517       57.44514
O         62.23870       53.82425       57.08015
C         62.73331       51.40056       55.38918
C         62.08749       52.32900       54.39397
O         61.36432       51.85890       53.53117
O         62.33129       53.65385       54.39770
H         64.00748       50.38461       57.65105
H         64.35803       52.73685       55.77314
H         61.97304       50.81348       55.94638
H         63.32638       50.68824       54.77177
N         63.25976       52.79063       58.78243
C         62.67123       53.62909       59.83106
C         61.18018       53.33719       59.97977
O         60.86172       52.22313       60.36232
C         63.41865       53.33782       61.15656
C         62.93545       54.10624       62.36084
C         62.95008       55.51030       62.37744
C         62.50111       53.41045       63.50411
C         62.53415       56.20451       63.51856
C         62.09301       54.10766       64.64351
C         62.10915       55.50392       64.65119
H         63.95494       52.09093       59.07292
H         62.85917       54.68645       59.56181
H         64.49357       53.57898       61.00763
H         63.35331       52.24615       61.36589
H         63.28879       56.06676       61.51343
H         62.49074       52.32728       63.52137
H         62.54866       57.28626       63.52815
H         61.77052       53.56385       65.52235
H         61.79648       56.04183       65.53660
N         60.19478       54.25922       59.71834
C         58.76366       53.98239       59.83618
C         58.22069       52.85199       58.96516
O         57.03835       52.56238       59.08677
C         58.10271       55.29173       59.38317
C         59.11581       56.32103       59.81597
C         60.42845       55.65449       59.40894
H         58.55936       53.76778       60.90925
H         58.08458       55.33050       58.26804
H         57.06663       55.44264       59.75645
H         58.96528       57.34032       59.40144
H         59.07511       56.37576       60.92857
H         60.63152       55.75138       58.32023
H         61.23219       56.11927       60.01565
N         58.99420       52.19233       58.05194
C         58.49273       51.13143       57.18218
C         59.16199       49.79344       57.48415
O         58.75853       48.79944       56.89603
C         58.74559       51.52716       55.71630
C         58.03812       52.83205       55.32369
C         58.45319       53.27628       53.95147
O         58.25241       52.56465       52.98049
O         59.05692       54.46936       53.79068
H         59.97858       52.46141       57.92997
H         57.40177       50.98116       57.33511
H         58.41920       50.71507       55.02963
H         59.83422       51.66557       55.59946
H         58.30812       53.63997       56.03674
H         56.93757       52.68593       55.35358
N         60.17356       49.67521       58.39046
C         60.77591       48.40887       58.73645
H         61.58154       48.57180       59.48604
H         60.01029       47.74222       59.18639
H         61.21676       47.93331       57.83669
H         60.54406       50.49949       58.86381
Ca        60.96464       53.99055       51.55093
O         62.15315       56.64661       53.28811
H         62.94592       57.10410       52.91023
H         61.51069       57.37650       53.47508
O         61.98997       56.60157       50.02766
H         61.62037       55.75640       49.67003
H         62.94032       56.39594       50.21047
O         59.11673       56.55325       51.52105
H         58.46994       56.23294       50.84323
H         58.55394       56.89744       52.25943

Ca 1.0



