%chk=apoCaM-CA-Ng.loop1.water3.frame1493.chk
%nprocshared=20
%mem=10GB
%nosave
#b3lyp/svp scf=(tight,noincore,xqc) Test 
#IOP(5/87=12) Density=Current Pop=(MK,readradii) iop(6/33=2) iop(6/42=6)

apoCaM-CA-Ng.loop1.water3.frame1493 

   0  1 
C         39.89381       61.05492       28.21287
C         40.47531       60.15988       27.16054
O         41.69136       60.08245       27.06622
H         38.78488       61.02119       28.20829
H         40.25856       60.73613       29.21107
H         40.20871       62.10080       28.02750
N         39.66182       59.46719       26.31397
C         40.16798       58.59901       25.25653
C         39.90600       59.17712       23.87751
O         40.39146       58.59371       22.91729
C         39.60948       57.16218       25.39223
C         38.11444       57.05169       25.21688
O         37.27350       57.63789       26.08968
O         37.65567       56.38611       24.30193
H         38.64454       59.59473       26.40595
H         41.27436       58.52102       25.33753
H         39.87970       56.75188       26.38839
H         40.10260       56.52547       24.62410
N         39.16878       60.31453       23.68736
C         38.96263       60.90672       22.37587
C         39.30784       62.40276       22.37410
O         38.52232       63.16115       21.81854
C         37.47807       60.70781       21.97803
C         37.08217       59.23262       21.80585
C         35.58715       59.07628       21.45904
C         34.61409       59.41799       22.60893
N         34.71327       58.46429       23.71624
H         38.71163       60.77934       24.48398
H         39.59543       60.41328       21.60777
H         37.27675       61.21160       21.00621
H         36.85519       61.18957       22.76029
H         37.32835       58.63723       22.70549
H         37.68112       58.82538       20.96247
H         35.39365       58.02670       21.15104
H         35.35978       59.72727       20.58651
H         33.57843       59.37414       22.20643
H         34.77211       60.45132       22.98234
H         35.65617       58.50330       24.15921
H         34.00168       58.70644       24.44284
H         34.52061       57.49516       23.37192
N         40.40925       62.97606       22.95027
C         41.44116       62.35472       23.78756
C         42.26850       61.29325       23.07789
O         42.07446       61.06068       21.89318
C         42.33033       63.47052       24.41074
C         43.14496       64.27934       23.43188
O         44.40942       64.62219       23.74014
O         42.61846       64.79548       22.46107
H         40.44636       64.00130       22.84958
H         40.93111       61.86830       24.64402
H         43.01813       63.04912       25.17123
H         41.65179       64.17434       24.94084
N         43.21297       60.59156       23.77497
C         44.00435       59.50531       23.21115
C         45.46460       59.87464       23.12198
O         45.82222       60.97796       23.50126
H         43.38009       60.82716       24.76440
H         43.65935       59.24861       22.18820
H         43.88308       58.60441       23.85113
N         46.37108       58.99638       22.59900
C         47.78250       59.33657       22.37594
C         48.68168       58.10139       22.43146
O         48.18803       56.99979       22.23276
C         47.94898       60.03513       20.99821
C         47.28504       61.37406       21.01131
O         47.72425       62.30323       21.87992
O         46.29879       61.58768       20.32517
H         46.02369       58.06915       22.31035
H         48.10065       60.00735       23.19271
H         47.50952       59.38424       20.21040
H         49.01093       60.20263       20.73824
N         50.02948       58.17501       22.67181
C         50.75980       59.39472       23.00146
C         50.36912       59.94722       24.35229
O         49.59671       59.31769       25.06363
H         50.57715       57.30150       22.63126
H         50.60166       60.15639       22.21668
H         51.84886       59.17809       23.04114
N         50.86929       61.14703       24.77185
C         50.49080       61.73419       26.05737
C         48.98137       61.94909       26.14431
O         48.30087       61.88537       25.13071
C         51.30059       63.01379       26.38430
C         51.08254       64.15219       25.37929
O         52.66603       62.68476       26.42348
H         51.53808       61.63541       24.15932
H         50.75024       60.98062       26.83532
H         50.97669       63.36412       27.39275
H         53.11293       63.35868       26.99988
H         50.01441       64.43736       25.34020
H         51.67131       65.04107       25.69151
H         51.41648       63.86674       24.36113
N         48.39262       62.06275       27.37026
C         46.95618       61.95914       27.63408
C         46.15495       63.11393       27.05563
O         46.03063       63.20569       25.84374
C         46.39022       60.58482       27.12987
C         47.20654       59.40366       27.71653
C         44.89129       60.44449       27.46323
C         46.82232       58.04254       27.13010
H         49.00779       62.09854       28.19778
H         46.83216       61.97984       28.74017
H         46.48417       60.54401       26.02554
H         47.10086       59.37881       28.82232
H         48.28113       59.54578       27.47871
H         44.47122       59.51135       27.03832
H         44.73052       60.45236       28.56142
H         44.30724       61.27090       27.01123
H         45.78104       57.76374       27.38501
H         46.94318       58.05233       26.02502
H         47.48997       57.26110       27.54986
N         45.50525       63.98271       27.88711
C         44.52484       64.95946       27.41458
C         44.95055       66.40856       27.62003
O         44.22514       67.28477       27.16778
C         43.15233       64.67276       28.08931
C         43.13531       64.91906       29.60653
O         42.79344       63.33312       27.86054
H         45.66218       63.89986       28.90164
H         44.38437       64.84228       26.32155
H         42.39159       65.36229       27.64890
H         42.00841       63.32989       27.25701
H         43.38444       65.97525       29.83921
H         42.11946       64.70891       30.00549
H         43.84478       64.25424       30.14004
N         46.07547       66.75200       28.31053
C         46.41546       68.14395       28.59868
C         47.06125       68.84575       27.41261
O         48.15543       68.46805       27.01864
C         47.36713       68.24699       29.81547
C         46.69743       67.75865       31.10240
O         48.53842       67.50463       29.58029
H         46.64238       66.00691       28.73816
H         45.48631       68.68546       28.88968
H         47.61369       69.32789       29.95555
H         49.28283       67.97819       30.03421
H         47.39788       67.88140       31.95491
H         45.78704       68.36143       31.30897
H         46.41187       66.68894       31.02702
N         46.46415       69.93884       26.85311
C         47.10537       70.83841       25.89655
C         47.55144       70.09417       24.64644
O         48.71235       69.72246       24.53778
C         48.23718       71.62388       26.60089
C         48.55270       72.93588       25.86538
C         49.62522       73.75308       26.60087
C         49.72288       75.20366       26.09253
N         50.01830       75.28984       24.66262
H         45.52186       70.20444       27.17803
H         46.34178       71.59712       25.61026
H         49.13918       70.99100       26.74765
H         47.86859       71.92246       27.60822
H         47.61526       73.53540       25.83957
H         48.87718       72.73138       24.82314
H         50.60543       73.23655       26.51170
H         49.36556       73.81901       27.68070
H         50.52300       75.72187       26.66635
H         48.76431       75.73125       26.29910
H         49.22339       74.90670       24.10243
H         50.13601       76.29649       24.40477
H         50.89941       74.77358       24.44145
N         46.63498       69.78677       23.69027
C         46.89423       68.89954       22.56234
C         45.97650       67.68421       22.64684
O         46.52237       66.60077       22.79660
C         46.78953       69.61078       21.19894
C         47.98414       70.53350       20.92596
C         47.87377       71.15421       19.56067
O         47.83265       72.49316       19.42882
O         47.83136       70.44920       18.56383
H         45.69449       70.17251       23.80984
H         47.93335       68.49875       22.61951
H         45.85695       70.19784       21.12337
H         46.79361       68.83052       20.40419
H         48.92625       69.94253       20.96217
H         48.03381       71.32932       21.69848
N         44.60961       67.70037       22.56691
C         43.74427       68.84483       22.37470
H         42.68832       68.50145       22.34779
H         43.80656       69.55517       23.21539
H         43.93894       69.33247       21.40432
H         44.12722       66.79804       22.63812
Ca        46.20798       63.59691       22.89863
O         44.55296       64.65864       20.22322
H         45.23694       63.96611       20.39683
H         43.70361       64.15320       20.16718
O         47.60361       65.58669       25.55700
H         48.03264       65.38364       26.42622
H         48.06504       66.40012       25.23469
O         49.20553       65.02660       22.67293
H         50.03220       64.77305       22.19089
H         49.42580       65.88956       23.10559

Ca 1.0



