%chk=apoCaM-CA-Ng.loop2.water5.frame448.chk
%nprocshared=20
%mem=10GB
%nosave
#b3lyp/svp scf=(tight,noincore,xqc) Test 
#IOP(5/87=12) Density=Current Pop=(MK,readradii) iop(6/33=2) iop(6/42=6)

apoCaM-CA-Ng.loop2.water5.frame448 

   -2  1 
C         93.47636       86.52491       82.02859
C         94.67540       87.40538       82.22868
O         95.61631       86.96510       82.87098
H         92.65171       87.07207       81.52731
H         93.75287       85.64284       81.41547
H         93.10784       86.17567       83.01798
N         94.71993       88.66046       81.69293
C         95.80387       89.60410       81.94811
C         95.61527       90.19507       83.33431
O         95.01724       91.25463       83.47803
C         95.86047       90.69051       80.84347
C         96.88416       91.77694       81.08933
O         97.75241       91.70884       82.11882
O         96.91437       92.74770       80.35035
H         93.93494       88.96588       81.09738
H         96.78723       89.08510       81.90377
H         94.86403       91.16886       80.75391
H         96.10281       90.20830       79.86854
N         96.12928       89.53910       84.40775
C         96.05957       90.03628       85.77178
C         94.83524       89.49793       86.47374
O         94.28283       88.51229       86.01859
C         97.31920       89.58525       86.51516
H         96.62428       88.65265       84.24377
H         96.01138       91.14826       85.76482
H         97.29814       89.90579       87.57533
H         97.39923       88.47388       86.48079
H         98.21722       90.00886       86.01700
N         94.34081       90.13031       87.57812
C         93.14638       89.69352       88.31388
C         93.46979       89.44759       89.78130
O         92.80222       88.62968       90.40048
C         92.01452       90.72397       88.17177
C         91.72480       91.03859       86.72414
O         92.13083       92.09635       86.27168
O         90.98707       90.25099       85.90790
H         94.82147       90.99207       87.87134
H         92.77507       88.73570       87.89908
H         92.35331       91.66159       88.66858
H         91.08592       90.39849       88.68434
N         94.50176       90.09160       90.40118
C         94.98902       89.72826       91.70862
C         95.63863       88.37344       91.63577
O         96.52756       88.17698       90.81641
H         95.02219       90.84124       89.93198
H         94.18241       89.78052       92.47280
H         95.78496       90.44484       92.01007
N         95.29082       87.41279       92.52616
C         96.02716       86.16685       92.65809
C         95.68416       85.14967       91.57484
O         94.62380       85.22998       90.97009
C         95.67971       85.54764       94.02269
C         96.63646       84.44838       94.37729
N         96.22906       83.16278       94.38555
O         97.80072       84.72105       94.62901
H         94.58357       87.65458       93.23568
H         97.11400       86.41876       92.63765
H         94.62832       85.18231       93.96821
H         95.72384       86.31039       94.83028
H         95.25486       82.92728       94.16100
H         96.89488       82.40298       94.58129
N         96.52587       84.10006       91.35823
C         96.24067       82.97239       90.48803
C         95.15098       82.05868       91.01411
O         94.48206       82.36826       91.98760
H         97.44058       84.09777       91.83445
H         97.16409       82.35677       90.42117
H         95.97616       83.31694       89.46666
N         94.94074       80.87565       90.37775
C         93.90850       79.90614       90.73863
C         92.89996       79.75397       89.61027
O         91.92460       79.04020       89.79824
C         94.56973       78.56618       91.14980
C         95.29573       77.84703       89.98997
O         95.44073       78.78720       92.23300
H         95.55928       80.65800       89.58445
H         93.33343       80.27148       91.61966
H         93.79377       77.86102       91.52570
H         96.24810       79.25171       91.89270
H         95.53364       78.52621       89.14802
H         96.24606       77.39331       90.34183
H         94.65576       77.03704       89.58253
N         93.03700       80.43986       88.43273
C         92.01502       80.48250       87.40192
C         91.51397       81.90975       87.28684
O         92.29176       82.85434       87.23308
C         92.50217       79.88664       86.05892
C         92.86922       78.38242       86.22816
C         91.42353       80.08715       84.97276
C         91.69272       77.43089       86.52080
H         93.87001       81.01797       88.25687
H         91.14583       79.87402       87.70558
H         93.42071       80.42711       85.73678
H         93.60364       78.29538       87.05615
H         93.36867       78.01499       85.30620
H         91.72296       79.62888       84.01023
H         90.45359       79.65393       85.30083
H         91.25824       81.17101       84.78872
H         92.09184       76.42333       86.76116
H         91.07964       77.74721       87.38639
H         91.03120       77.33244       85.63390
N         90.17048       82.09968       87.24401
C         89.49039       83.38309       87.25052
C         88.14036       83.22319       87.98014
O         87.25470       84.04590       87.80753
C         89.32259       83.82518       85.77711
C         89.20395       85.31196       85.60225
O         89.24231       85.78183       84.47638
O         89.13861       86.13888       86.66468
H         89.59210       81.25577       87.13046
H         90.12695       84.12783       87.78106
H         88.46286       83.30864       85.29663
H         90.24152       83.54058       85.22040
N         87.91975       82.12664       88.77669
C         86.65436       81.71719       89.37804
C         85.61839       81.47132       88.28592
O         85.96554       80.85878       87.28515
C         86.91425       80.41340       90.19249
C         85.74827       79.93600       91.02414
C         85.67848       80.24981       92.39560
C         84.72481       79.16661       90.44650
C         84.58891       79.82545       93.16355
C         83.64019       78.74035       91.22004
C         83.56774       79.07628       92.57458
H         88.71220       81.50459       88.97763
H         86.32289       82.50762       90.08266
H         87.75509       80.63007       90.88703
H         87.26223       79.58989       89.52826
H         86.45752       80.83546       92.86882
H         84.76900       78.89416       89.40032
H         84.53326       80.08025       94.21483
H         82.85347       78.15133       90.76799
H         82.72178       78.75358       93.16831
N         84.31619       81.87884       88.40822
C         83.29271       81.65763       87.38976
C         83.58936       82.30189       86.02559
O         82.90793       81.98223       85.06177
C         82.04186       82.31772       87.99729
C         82.27168       82.19163       89.48980
C         83.76679       82.43523       89.62683
H         83.18216       80.55542       87.28704
H         82.06516       83.40989       87.78298
H         81.07685       81.89796       87.63957
H         81.65244       82.84921       90.13824
H         82.07209       81.13054       89.76071
H         84.05783       83.50219       89.70736
H         84.08852       81.88907       90.53613
N         84.52957       83.28510       85.90227
C         84.78930       84.05735       84.68232
C         85.65648       83.31648       83.66018
O         85.86773       83.86708       82.58833
C         85.33507       85.44536       85.11743
C         85.74747       86.41042       83.99852
C         86.06309       87.75974       84.58060
O         85.15128       88.52530       84.85443
O         87.33873       88.11807       84.84979
H         84.99222       83.59776       86.76469
H         83.82400       84.26616       84.16944
H         86.21375       85.31963       85.78332
H         84.51727       85.91763       85.70940
H         84.94325       86.52073       83.23903
H         86.65830       86.01986       83.50212
N         86.13742       82.05660       83.87071
C         86.84112       81.30208       82.84646
H         87.85133       81.01397       83.20272
H         86.26094       80.38296       82.61720
H         86.95335       81.86645       81.89550
H         85.97205       81.58127       84.76678
Ca        89.54270       88.59424       85.27144
O         89.08139       87.84442       82.07837
H         88.56148       87.00999       81.96172
H         89.62131       87.91815       81.25171
O         88.40338       90.76955       84.20263
H         88.61891       91.66045       84.57291
H         87.42287       90.76828       84.07286
O         91.67097       89.08246       83.39078
H         92.27071       89.68044       83.90178
H         91.74076       89.40575       82.45951
O         91.83663       86.72543       85.93821
H         91.93717       86.42105       86.87420
H         92.14997       87.65935       85.94785
O         88.51356       89.22829       87.61617
H         87.84985       89.78307       88.09159
H         89.19927       88.99261       88.28916

Ca 1.0



