%chk=apoCaM-CA-Ng.loop4.water3.frame396.chk
%nprocshared=20
%mem=10GB
%nosave
#b3lyp/svp scf=(tight,noincore,xqc) Test 
#IOP(5/87=12) Density=Current Pop=(MK,readradii) iop(6/33=2) iop(6/42=6)

apoCaM-CA-Ng.loop4.water3.frame396 

   -3  1 
C         26.19135       83.11313       43.02606
C         27.60195       83.50797       42.71815
O         27.84193       84.00818       41.63490
H         25.52650       83.34159       42.16384
H         26.13948       82.02859       43.24649
H         25.83404       83.69250       43.90354
N         28.58453       83.34922       43.64947
C         29.95688       83.81498       43.48008
C         29.98976       85.31707       43.30603
O         30.40625       85.79578       42.27033
C         30.81176       82.96013       42.49809
C         30.38554       82.59147       41.08723
O         30.27642       83.46233       40.06058
O         30.28453       81.40375       40.82162
H         28.32926       82.94110       44.56150
H         30.49323       83.65988       44.44487
H         30.93606       81.98514       43.02275
H         31.82725       83.40840       42.44152
N         29.57095       86.10238       44.34870
C         29.52207       87.56724       44.43185
C         30.92921       88.18147       44.43674
O         31.35370       88.65014       45.48396
C         28.52643       88.17457       43.40021
C         28.30813       89.70220       43.58682
C         27.17004       87.43964       43.45365
C         27.67179       90.13087       44.91441
H         29.23901       85.60645       45.19128
H         29.09740       87.78124       45.43779
H         28.93959       88.02105       42.38068
H         27.65261       90.06350       42.76476
H         29.27317       90.23047       43.50458
H         26.71745       87.50035       44.46563
H         26.46371       87.87031       42.71309
H         27.29111       86.36557       43.20820
H         26.66261       89.69025       45.04262
H         28.31146       89.85550       45.77669
H         27.55648       91.23539       44.91961
N         31.72682       88.17330       43.33283
C         33.14496       88.51824       43.34989
C         33.43012       90.01351       43.22209
O         34.26386       90.48469       43.98249
C         33.90839       87.72681       42.25857
C         33.85320       86.22957       42.46223
O         34.43568       85.49563       41.68063
O         33.19576       85.68613       43.50646
H         31.35525       87.79760       42.45772
H         33.60335       88.16069       44.30195
H         34.98126       88.01854       42.28620
H         33.51359       87.96418       41.25089
N         32.87449       90.83759       42.28229
C         31.75255       90.46762       41.43816
C         31.34179       91.58191       40.48596
O         31.26651       92.71481       40.94046
H         33.23110       91.80493       42.22859
H         30.89432       90.28498       42.10026
H         31.96109       89.53390       40.92569
N         30.96923       91.38113       39.17916
C         30.83711       90.09122       38.49829
C         29.84170       89.23098       39.27500
O         30.23596       88.22266       39.84099
C         32.20913       89.44890       38.18946
C         33.05362       90.38714       37.36800
O         32.65596       90.79056       36.28580
O         34.25131       90.79440       37.82864
H         30.67303       92.21204       38.64279
H         30.42102       90.24775       37.48198
H         32.04289       88.51942       37.60420
H         32.78321       89.16888       39.08490
N         28.52879       89.59585       39.41344
C         27.89083       90.65092       38.64149
C         27.52292       91.84869       39.45682
O         27.66114       91.84848       40.67220
H         27.93000       89.06833       40.06376
H         26.99511       90.24484       38.12595
H         28.54748       91.03373       37.84880
N         27.08555       92.95520       38.79403
C         26.80938       94.22338       39.44888
C         25.38508       94.29160       39.97913
O         25.11042       95.18132       40.77227
C         27.31407       95.41618       38.59474
C         26.73599       95.58510       37.17217
C         25.29702       95.99761       37.14496
N         24.91105       97.16061       37.71517
O         24.47963       95.30277       36.56333
H         27.01173       92.89544       37.76965
H         27.44291       94.26566       40.36455
H         28.40767       95.26283       38.45953
H         27.19049       96.35966       39.16709
H         26.88369       94.66722       36.56779
H         27.30739       96.38944       36.66145
H         25.59262       97.77247       38.18511
H         23.93310       97.46543       37.66917
N         24.45871       93.33341       39.67038
C         23.18491       93.18083       40.37442
C         21.95717       93.39245       39.49491
O         20.86370       93.28751       40.03175
C         23.12363       91.77688       41.06326
C         24.15629       91.66337       42.19338
C         23.30262       90.60406       40.07771
H         24.69059       92.63375       38.95283
H         23.09194       93.94604       41.17655
H         22.12423       91.66729       41.53960
H         24.05793       90.68085       42.70459
H         25.19068       91.75800       41.80485
H         23.98047       92.45838       42.94897
H         23.16261       89.63951       40.60999
H         22.55840       90.65705       39.25618
H         24.32267       90.58678       39.63961
N         22.03217       93.71031       38.16996
C         20.84091       93.91021       37.33995
C         20.76038       92.91135       36.19971
O         19.77170       92.96378       35.47648
C         20.81435       95.34304       36.76557
C         20.70635       96.40302       37.83223
N         19.64634       96.44257       38.67176
O         21.57136       97.25717       37.92223
H         22.95290       93.81633       37.72960
H         19.91601       93.75770       37.93446
H         19.92943       95.46210       36.10292
H         21.72530       95.50894       36.14784
H         18.89071       95.74648       38.60647
H         19.57721       97.18218       39.38655
N         21.71828       91.96852       35.96823
C         21.64066       91.02950       34.84820
C         22.71899       89.96292       34.89995
O         23.66640       90.09598       35.66062
C         21.69349       91.78996       33.49117
C         22.82289       92.80573       33.41723
C         22.51345       94.17693       33.33662
C         24.17577       92.41878       33.43223
C         23.52810       95.13576       33.28246
C         25.19049       93.38154       33.37880
C         24.87166       94.74102       33.30528
O         25.86076       95.65639       33.25658
H         22.52035       91.90908       36.61145
H         20.67989       90.47377       34.93290
H         20.73220       92.32682       33.36638
H         21.75049       91.08588       32.63452
H         21.48316       94.50988       33.32313
H         24.45574       91.37787       33.48221
H         23.26739       96.18525       33.22528
H         26.22756       93.07018       33.39443
H         25.68067       96.60626       33.20536
N         22.62505       88.88088       34.06881
C         23.57941       87.77983       33.94788
C         23.51180       86.78334       35.10984
O         23.25435       85.61700       34.84061
C         24.98973       88.30474       33.61131
C         25.94164       87.18057       33.18176
C         27.23330       87.75170       32.66951
O         28.01005       88.50370       33.47204
O         27.57997       87.54404       31.51706
H         21.81922       88.84963       33.42365
H         23.26326       87.19977       33.04920
H         25.43146       88.86589       34.46066
H         24.87958       88.99889       32.74768
H         25.46733       86.58878       32.36699
H         26.14626       86.50271       34.03728
N         23.70747       87.14034       36.41302
C         23.65276       86.19064       37.52552
C         22.28327       85.52991       37.68261
O         22.18176       84.60983       38.48388
C         23.98628       86.88725       38.87420
C         25.32499       87.64649       38.94177
C         26.52861       86.76149       38.83794
O         26.74228       86.10347       37.83316
O         27.40497       86.73691       39.85849
H         23.92238       88.11007       36.62897
H         24.39742       85.39168       37.32288
H         23.97077       86.13761       39.69710
H         23.18201       87.62812       39.07777
H         25.36609       88.16028       39.92717
H         25.38332       88.43499       38.16831
N         21.18076       85.94485       36.99359
C         19.88980       85.31429       37.16759
H         19.13436       85.81181       36.52286
H         19.94887       84.24194       36.88417
H         19.56419       85.40107       38.22629
H         21.23400       86.73820       36.34064
Ca        29.22477       85.43309       39.87750
O         30.01035       86.51091       36.93458
H         29.07685       86.37695       36.63524
H         30.45783       86.93467       36.15997
O         32.38971       85.93842       39.12489
H         32.86092       85.52817       38.35686
H         32.46437       85.26693       39.84825
O         28.06153       83.14105       38.03092
H         28.33003       83.50381       37.14969
H         28.67185       82.37568       38.17979

Ca 1.0



