%chk=apoCaM-CA-Ng.loop4.water5.frame965.chk
%nprocshared=20
%mem=10GB
%nosave
#b3lyp/svp scf=(tight,noincore,xqc) Test 
#IOP(5/87=12) Density=Current Pop=(MK,readradii) iop(6/33=2) iop(6/42=6)

apoCaM-CA-Ng.loop4.water5.frame965 

   -3  1 
C         75.12105       96.01033       50.49079
C         75.79304       96.35080       51.78963
O         76.03753       97.52117       52.04151
H         74.13564       96.51919       50.43854
H         75.75368       96.34242       49.64229
H         74.95173       94.91605       50.39631
N         76.10967       95.36322       52.67248
C         76.72767       95.56657       53.97788
C         75.84100       96.40745       54.87172
O         76.34695       97.30382       55.52949
C         78.13940       96.18963       53.86010
C         79.02303       95.41136       52.94502
O         79.30159       94.12156       53.20514
O         79.49964       95.95268       51.96290
H         75.88394       94.38900       52.41845
H         76.82163       94.56537       54.45493
H         78.61927       96.23054       54.86175
H         78.06063       97.23281       53.48236
N         74.50108       96.16885       54.95674
C         73.61823       96.97388       55.79044
C         73.03158       96.05728       56.85888
O         72.22929       95.20755       56.49761
C         72.48760       97.64829       54.94493
C         73.06497       98.45352       53.75079
C         71.62613       98.55977       55.84632
C         71.99234       98.98449       52.79327
H         74.09166       95.39505       54.41125
H         74.17944       97.81220       56.23877
H         71.84606       96.84355       54.52329
H         73.70730       97.78441       53.14669
H         73.68456       99.29995       54.11478
H         71.20158       97.99105       56.69855
H         72.23867       99.39614       56.24911
H         70.76680       98.98666       55.29311
H         71.37738       98.14462       52.40437
H         71.33131       99.72762       53.28165
H         72.48017       99.48771       51.93173
N         73.32990       96.14015       58.19040
C         74.35002       97.00012       58.78330
C         75.17862       96.22021       59.80462
O         74.79335       95.12510       60.19189
C         73.64230       98.23501       59.36600
C         74.55781       99.26129       59.95638
O         74.39133       99.63603       61.23713
O         75.42059       99.79188       59.27490
H         72.78814       95.53657       58.82907
H         75.07436       97.32078       58.01310
H         72.91082       97.90664       60.13524
H         73.07989       98.72952       58.54510
N         76.38685       96.69915       60.21562
C         77.28387       95.97634       61.10619
C         77.78492       96.82088       62.25563
O         78.69303       96.36821       62.93837
H         76.73393       97.58237       59.81328
H         78.17701       95.70020       60.50599
H         76.83661       95.03847       61.50017
N         77.27687       98.05738       62.52771
C         77.86917       98.95023       63.51496
C         76.94676      100.11948       63.84862
O         76.64053      100.27825       65.02325
C         79.30092       99.38010       63.07940
C         79.48302       99.69078       61.60704
O         78.86294      100.72111       61.01445
O         80.23141       98.99719       60.93653
H         76.46340       98.39341       61.99854
H         77.98502       98.40795       64.48210
H         79.97520       98.52204       63.28956
H         79.66010      100.22047       63.71213
N         76.45796      100.97037       62.90315
C         75.61311      102.11517       63.22460
C         76.28389      103.42970       62.88468
O         75.68800      104.46448       63.14547
H         76.68447      100.81075       61.91437
H         75.37389      102.14756       64.30964
H         74.65210      102.02833       62.67468
N         77.53113      103.47390       62.32573
C         78.29879      104.68298       62.06621
C         77.67844      105.60004       61.01602
O         78.23280      106.66607       60.79095
C         78.63380      105.39701       63.39617
C         79.33150      104.41530       64.36604
C         79.85611      105.05126       65.62626
N         80.48507      104.28220       66.54572
O         79.73154      106.25111       65.82289
H         78.02023      102.60205       62.11769
H         79.28127      104.37762       61.63914
H         77.72310      105.81434       63.87609
H         79.32709      106.23687       63.17212
H         80.19528      103.94383       63.84907
H         78.61669      103.61433       64.65683
H         80.59752      103.26837       66.39318
H         80.86275      104.69704       67.41003
N         76.58090      105.23398       60.28638
C         75.98563      106.07222       59.24270
C         76.07676      105.42848       57.85733
O         75.67853      106.07023       56.89357
C         74.50727      106.40132       59.60156
C         73.61792      105.14489       59.70150
C         74.43220      107.19756       60.91167
H         76.15367      104.31545       60.45458
H         76.53860      107.03336       59.16363
H         74.09054      107.04672       58.79673
H         72.56571      105.43872       59.90071
H         73.63652      104.57087       58.75132
H         73.93853      104.47710       60.52806
H         74.82605      106.60368       61.76273
H         75.02652      108.13161       60.82502
H         73.37989      107.47428       61.13410
N         76.55548      104.16539       57.67994
C         76.59749      103.46761       56.40245
C         77.98376      102.89746       56.16073
O         78.57373      102.36291       57.09099
C         75.58452      102.30969       56.46833
C         75.67238      101.41534       55.25849
N         76.04177      100.12453       55.39948
O         75.43900      101.86185       54.14530
H         76.85657      103.61980       58.49895
H         76.29835      104.11771       55.54867
H         74.55292      102.71504       56.55278
H         75.78873      101.71006       57.38088
H         76.25464       99.73568       56.33114
H         76.13175       99.52135       54.57045
N         78.50363      102.85858       54.89842
C         79.73116      102.13714       54.56809
C         80.04619      102.29985       53.09299
O         79.21991      101.92023       52.27174
C         79.55845      100.61987       54.86213
C         80.83464       99.83079       54.70317
C         81.92908      100.08923       55.54580
C         80.93184       98.80595       53.74758
C         83.09816       99.33185       55.43877
C         82.10261       98.04817       53.64346
C         83.18737       98.30530       54.48827
O         84.30441       97.55770       54.38298
H         77.97491      103.31582       54.13780
H         80.55789      102.55360       55.18379
H         78.75886      100.21639       54.20141
H         79.22428      100.44004       55.90084
H         81.87228      100.86741       56.29666
H         80.10134       98.58658       53.08965
H         83.92926       99.53796       56.10157
H         82.16460       97.25355       52.91171
H         85.07105       97.69512       54.95780
N         81.23296      102.82802       52.68267
C         81.59435      102.95355       51.27808
C         82.81402      102.08764       51.01842
O         83.87179      102.43495       51.52720
C         81.87841      104.44076       50.95550
C         82.27076      104.68852       49.49008
C         82.57118      106.14381       49.25886
O         81.61935      107.07421       49.46507
O         83.67900      106.49005       48.87947
H         81.92067      103.12652       53.39220
H         80.75285      102.63092       50.64395
H         82.70139      104.80456       51.61136
H         80.96765      105.03501       51.18945
H         81.44168      104.38131       48.81876
H         83.17375      104.09123       49.23662
N         82.80429      100.94156       50.27191
C         81.64113      100.27709       49.67178
C         80.93005      101.13914       48.65208
O         81.57592      101.81298       47.86199
C         82.08529       98.97152       48.97191
C         82.47983       97.87715       49.97827
C         83.18721       96.74372       49.28786
O         82.65033       95.51077       49.19698
O         84.28845       96.94127       48.80050
H         83.71929      100.47541       50.16071
H         80.91346      100.00180       50.46806
H         82.92566       99.21685       48.28551
H         81.25568       98.55289       48.35841
H         81.55744       97.52351       50.48972
H         83.17232       98.26942       50.75275
N         79.56666      101.10616       48.59739
C         78.77096      101.87870       47.66842
H         78.04365      102.49174       48.24111
H         79.38908      102.55444       47.04299
H         78.20739      101.18920       47.00418
H         79.05441      100.47927       49.23723
Ca        80.50845       94.96484       49.64124
O         78.70258       96.74786       48.00303
H         79.11116       97.07010       47.16068
H         78.99435       97.40129       48.68756
O         81.61856       94.72765       46.16224
H         82.46905       94.78563       45.65869
H         81.66445       95.47428       46.80997
O         82.41458       93.47132       51.58543
H         83.05360       93.56451       52.33493
H         81.54071       93.72074       51.97537
O         79.39254       91.84408       51.03460
H         78.54472       91.33873       50.95694
H         79.67323       91.71214       51.97492
O         81.93206       92.30566       48.75397
H         82.89544       92.53462       48.75040
H         81.70949       92.15132       47.80180

Ca 1.0



