%chk=apoCaM-CA-Ng.loop2.water3.frame333.chk
%nprocshared=20
%mem=10GB
%nosave
#b3lyp/svp scf=(tight,noincore,xqc) Test 
#IOP(5/87=12) Density=Current Pop=(MK,readradii) iop(6/33=2) iop(6/42=6)

apoCaM-CA-Ng.loop2.water3.frame333 

   -2  1 
C         78.49493       77.86425       65.36660
C         79.28088       78.65083       66.37630
O         78.70175       79.07451       67.36364
H         77.67334       78.49642       64.96613
H         79.13178       77.54013       64.51720
H         78.05607       76.96552       65.84798
N         80.61520       78.87348       66.20582
C         81.41223       79.68651       67.12204
C         81.00217       81.14232       66.97914
O         81.07759       81.66306       65.87346
C         82.91224       79.52449       66.79521
C         83.82861       80.23056       67.76366
O         83.34463       80.92324       68.81385
O         85.03595       80.15968       67.60308
H         81.08057       78.44327       65.39140
H         81.25866       79.31417       68.16007
H         83.11242       79.89636       65.76631
H         83.16405       78.44211       66.82832
N         80.54334       81.86292       68.04421
C         80.05990       83.23527       67.89500
C         78.87270       83.27031       66.95193
O         78.67788       84.26251       66.26501
C         79.65569       83.83082       69.24611
H         80.50787       81.41368       68.97244
H         80.88127       83.86080       67.47909
H         79.31314       84.88029       69.11420
H         78.83353       83.24094       69.70550
H         80.52728       83.83291       69.93434
N         78.05711       82.18218       66.85819
C         76.93513       82.03577       65.95083
C         75.85774       83.03353       66.31337
O         75.34949       83.74823       65.46074
C         77.42980       82.06838       64.48781
C         76.37001       81.70609       63.49141
O         76.06112       82.49351       62.61154
O         75.79550       80.49050       63.52407
H         78.23357       81.38699       67.48178
H         76.50134       81.02566       66.13520
H         78.24942       81.32452       64.37561
H         77.84142       83.06997       64.24524
N         75.46717       83.10881       67.61626
C         74.39789       83.95059       68.11108
C         73.33120       83.13016       68.81022
O         72.39153       83.73137       69.31044
H         75.96089       82.52879       68.31252
H         73.92134       84.52864       67.28928
H         74.82644       84.67255       68.83801
N         73.38524       81.76159       68.86715
C         72.34707       80.94170       69.46925
C         72.92588       79.98706       70.50590
O         73.70238       79.11005       70.15044
C         71.67135       80.13366       68.34795
C         70.61184       79.20943       68.88374
N         70.75957       77.87058       68.76882
O         69.62634       79.66942       69.44042
H         74.15851       81.25315       68.41651
H         71.57386       81.58001       69.95071
H         72.45202       79.54060       67.82038
H         71.21777       80.82336       67.60393
H         71.59233       77.46742       68.32153
H         70.05356       77.22994       69.14526
N         72.53562       80.06809       71.80787
C         72.87122       79.06270       72.80257
C         72.04547       77.82031       72.55576
O         70.83060       77.95480       72.50627
H         71.92997       80.84845       72.10457
H         72.56519       79.44172       73.80234
H         73.96603       78.87391       72.83220
N         72.61073       76.58155       72.42192
C         71.79930       75.37610       72.21358
C         72.11708       74.65279       70.90801
O         71.36118       73.74835       70.57414
C         71.89093       74.42005       73.43395
C         73.27548       73.79001       73.64416
O         71.46552       75.07450       74.60391
H         73.63347       76.49161       72.50575
H         70.72885       75.66457       72.13212
H         71.18644       73.57641       73.26070
H         72.16858       75.72582       74.86361
H         73.24567       73.10662       74.51924
H         73.55638       73.18802       72.76076
H         74.05044       74.56283       73.82517
N         73.18293       74.97554       70.11468
C         73.46019       74.32785       68.83263
C         73.43023       75.38187       67.74822
O         74.16733       76.35768       67.82944
C         74.82128       73.57895       68.84124
C         74.89062       72.47876       69.93171
C         75.12901       72.97513       67.45368
C         73.84663       71.35840       69.81001
H         73.82984       75.72096       70.41084
H         72.67930       73.57411       68.59851
H         75.62698       74.31264       69.06729
H         74.78425       72.95496       70.92382
H         75.89905       72.01254       69.90129
H         76.10357       72.44415       67.47084
H         74.33542       72.26754       67.13508
H         75.20124       73.77011       66.68215
H         72.81506       71.74782       69.90384
H         73.94247       70.81669       68.84750
H         73.99829       70.62511       70.62911
N         72.57602       75.24422       66.70031
C         72.42545       76.24643       65.65283
C         71.05667       76.09255       64.97947
O         70.91516       76.38600       63.80339
C         73.62133       76.11646       64.67789
C         73.73900       77.22205       63.66649
O         72.88319       78.26254       63.66170
O         74.64513       77.18659       62.84948
H         71.99302       74.39367       66.66955
H         72.42440       77.25115       66.12918
H         73.54642       75.13795       64.15325
H         74.57025       76.12207       65.25556
N         69.99387       75.61649       65.69612
C         68.66056       75.38271       65.15282
C         68.72043       74.45750       63.94241
O         69.40800       73.44782       64.02378
C         67.76801       74.70655       66.22496
C         67.64672       75.51258       67.49852
C         68.12260       74.98924       68.71629
C         67.05697       76.78705       67.48549
C         68.00940       75.72967       69.89677
C         66.94734       77.52518       68.66858
C         67.42239       76.99756       69.87280
H         70.13598       75.38949       66.68895
H         68.22172       76.36126       64.87506
H         68.20169       73.70790       66.45972
H         66.74894       74.53844       65.81406
H         68.58652       74.01115       68.75385
H         66.68122       77.20753       66.56158
H         68.38431       75.32422       70.82795
H         66.49416       78.50754       68.65165
H         67.34103       77.57276       70.78589
N         67.99320       74.68605       62.80136
C         67.95500       73.75429       61.68000
C         69.25424       73.62458       60.90321
O         69.34599       72.73455       60.06936
C         66.87385       74.33573       60.75947
C         65.95588       75.02220       61.74996
C         66.96640       75.69900       62.66850
H         67.64017       72.76914       62.09290
H         67.31529       75.14966       60.13672
H         66.39425       73.59624       60.08369
H         65.21067       75.71252       61.30135
H         65.42065       74.23477       62.32900
H         67.40999       76.59199       62.17423
H         66.46192       75.97483       63.61787
N         70.26496       74.52884       61.05182
C         71.48254       74.49270       60.24538
C         72.40487       73.34256       60.62850
O         73.40637       73.16065       59.94835
C         72.25397       75.82661       60.36479
C         71.43989       77.01439       59.82192
C         72.20412       78.29909       59.94439
O         71.69847       79.31492       60.66968
O         73.27560       78.43684       59.37551
H         70.12656       75.31479       61.69864
H         71.19515       74.37135       59.17632
H         73.19391       75.76038       59.77262
H         72.52178       76.00132       61.42836
H         70.48597       77.11857       60.37951
H         71.20021       76.84351       58.75015
N         72.16248       72.53317       61.69860
C         73.05821       71.45477       62.05552
H         74.06877       71.85978       62.27757
H         72.67977       70.93022       62.95819
H         73.12607       70.72546       61.22042
H         71.33611       72.67978       62.29303
Ca        74.38467       79.96520       61.84966
O         72.29277       82.00997       62.35775
H         72.20672       82.88488       61.90270
H         72.30606       82.22906       63.32319
O         74.31254       81.56275       59.28408
H         75.22964       81.33499       58.98813
H         74.40777       82.43735       59.73846
O         76.91852       78.78270       60.54752
H         77.32021       78.25217       61.28078
H         77.33359       79.67779       60.63239

Ca 1.0



