%chk=apoCaM-CA-Ng.loop2.water4.frame358.chk
%nprocshared=20
%mem=10GB
%nosave
#b3lyp/svp scf=(tight,noincore,xqc) Test 
#IOP(5/87=12) Density=Current Pop=(MK,readradii) iop(6/33=2) iop(6/42=6)

apoCaM-CA-Ng.loop2.water4.frame358 

   -2  1 
C         59.23586      102.35324       31.75662
C         58.03145      102.97524       31.11189
O         56.92781      102.81068       31.61199
H         59.95800      103.14633       32.04407
H         58.94975      101.78179       32.66514
H         59.72505      101.66083       31.03961
N         58.17966      103.72271       29.98514
C         57.06122      104.36523       29.30280
C         56.06283      103.33779       28.78023
O         56.44244      102.48318       27.99410
C         57.55185      105.29081       28.16018
C         58.24443      104.58870       27.01672
O         57.77768      104.65661       25.89090
O         59.39186      103.91205       27.21297
H         59.13669      103.86010       29.62894
H         56.55575      105.03535       30.03338
H         58.24641      106.05036       28.58062
H         56.66738      105.83491       27.75978
N         54.74915      103.39598       29.14484
C         53.73674      102.48660       28.61088
C         53.92072      101.06992       29.13580
O         53.83873      100.86247       30.33892
C         52.33318      102.98744       28.96795
H         54.45007      104.16048       29.76999
H         53.80287      102.50334       27.49964
H         52.19195      103.02225       30.06917
H         52.18579      104.01038       28.55842
H         51.56401      102.32081       28.52262
N         54.17576      100.04092       28.27684
C         54.38543       98.65945       28.71460
C         53.10676       97.97130       29.20799
O         53.21056       96.84721       29.68117
C         54.98206       97.84635       27.53539
C         55.34316       96.43103       27.90029
O         56.22231       96.18656       28.88934
O         54.83399       95.49562       27.30410
H         54.28471      100.26519       27.27520
H         55.13586       98.67073       29.53416
H         55.90745       98.34354       27.18009
H         54.25574       97.83877       26.69163
N         51.86491       98.52314       29.06968
C         50.65303       97.75578       29.33159
C         50.42032       97.35156       30.77393
O         49.50960       96.56193       30.98703
H         51.75589       99.45686       28.65070
H         50.70902       96.82831       28.71798
H         49.76196       98.32283       28.98870
N         51.14559       97.84876       31.81897
C         50.92101       97.40376       33.19881
C         51.64804       98.31406       34.18316
O         52.75586       98.74158       33.88403
C         51.40137       95.93464       33.35405
C         50.92311       95.27151       34.62585
N         50.16924       94.14620       34.57904
O         51.22811       95.73892       35.70812
H         51.84875       98.57679       31.62561
H         49.82839       97.46348       33.40772
H         52.51155       95.90192       33.30688
H         51.02413       95.32675       32.50825
H         49.90729       93.71683       33.67980
H         49.85145       93.69232       35.44873
N         51.11052       98.60491       35.40628
C         51.78928       99.44478       36.38770
C         52.29550       98.63243       37.55538
O         52.04742       97.43605       37.61250
H         50.20797       98.18097       35.67329
H         51.10609      100.24983       36.73341
H         52.67843       99.93280       35.93644
N         53.08791       99.21679       38.49995
C         53.72390       98.45805       39.57556
C         55.23702       98.34812       39.37385
O         55.84917       97.56335       40.08106
C         53.34487       99.01932       40.97044
C         53.85510      100.44489       41.23304
O         51.95331       98.95402       41.16448
H         53.29240      100.22398       38.40964
H         53.36020       97.40705       39.54836
H         53.81272       98.36524       41.73836
H         51.52847       99.61987       40.56259
H         54.95881      100.47998       41.15515
H         53.41763      101.17140       40.51780
H         53.57380      100.75758       42.26094
N         55.89971       99.06536       38.41238
C         57.31384       98.88716       38.08344
C         57.40075       98.54587       36.60991
O         56.90641       99.30974       35.79247
C         58.13403      100.16964       38.39149
C         58.07919      100.55989       39.89090
C         59.59844      100.02145       37.92373
C         58.67409       99.52970       40.86112
H         55.38655       99.75939       37.85394
H         57.75626       98.05360       38.66669
H         57.69092      101.01515       37.81904
H         57.02518      100.74443       40.17668
H         58.62933      101.51590       40.02723
H         60.09386       99.15652       38.41158
H         59.65055       99.86268       36.82588
H         60.17084      100.94527       38.14903
H         59.74813       99.35115       40.65189
H         58.59065       99.91435       41.89861
H         58.13168       98.56569       40.81895
N         58.00096       97.39246       36.20431
C         58.01653       96.97338       34.80653
C         58.38572       95.49531       34.72113
O         59.20211       95.10405       33.90309
C         58.96748       97.88875       33.99109
C         58.90015       97.68814       32.50330
O         58.01943       96.82945       31.95353
O         59.63627       98.33939       31.77954
H         58.39176       96.76938       36.92681
H         56.97154       97.05424       34.43155
H         60.00882       97.71648       34.34296
H         58.72556       98.95578       34.17098
N         57.81110       94.62225       35.59302
C         58.05466       93.18208       35.63767
C         59.54980       92.86766       35.71997
O         60.19754       93.38439       36.62072
C         57.36606       92.57954       36.89149
C         55.90105       92.94395       37.00002
C         55.45867       93.74785       38.06959
C         54.97248       92.51098       36.04003
C         54.11513       94.11273       38.17287
C         53.62526       92.87461       36.15146
C         53.19870       93.67328       37.21696
H         57.16378       95.02172       36.28693
H         57.60376       92.72711       34.73399
H         57.89415       92.96976       37.79068
H         57.47671       91.47350       36.89689
H         56.15493       94.10407       38.81927
H         55.29051       91.89436       35.20936
H         53.78565       94.73743       38.99377
H         52.91089       92.53919       35.41121
H         52.15835       93.95342       37.30417
N         60.17341       92.00407       34.85433
C         61.56784       91.60270       34.98868
C         62.54143       92.58774       34.35289
O         63.73970       92.38377       34.49184
C         61.60001       90.25616       34.25822
C         60.64291       90.51293       33.10758
C         59.50498       91.25189       33.81007
H         61.84502       91.44837       36.05538
H         62.61099       89.89211       33.97436
H         61.12302       89.49007       34.91162
H         61.14504       91.21879       32.40728
H         60.32278       89.61862       32.53275
H         58.96827       91.89430       33.07911
H         58.80103       90.53923       34.29404
N         62.11469       93.64424       33.60595
C         63.02685       94.58791       32.97291
C         63.76805       95.38090       34.02790
O         64.99091       95.36386       34.03204
C         62.27633       95.56543       32.04527
C         61.58854       94.86326       30.86250
C         60.92843       95.88639       29.98759
O         61.59358       96.75795       29.45019
O         59.59413       95.87785       29.82555
H         61.10900       93.76157       33.45188
H         63.75509       94.03176       32.33915
H         63.01808       96.28699       31.63467
H         61.51856       96.13771       32.62361
H         60.81953       94.15227       31.23206
H         62.33263       94.29649       30.26254
N         63.07833       96.10628       34.95397
C         63.71380       96.92013       35.96955
H         64.82090       96.91430       35.88641
H         63.36307       97.96865       35.86688
H         63.43142       96.54344       36.97435
H         62.04744       96.08301       34.94573
Ca        58.64125       97.65918       28.82299
O         58.11851      100.21018       27.39703
H         57.29040      100.05725       27.91619
H         57.82276      100.22068       26.45294
O         59.52114       97.40510       26.00983
H         58.55341       97.59346       25.91511
H         59.55892       96.49913       26.40836
O         60.86906      100.00705       28.83528
H         61.56662      100.46629       29.36658
H         60.64405      100.65008       28.11700
O         57.24478       99.84903       30.73054
H         56.94650       99.84888       31.67451
H         56.64958      100.50035       30.28303

Ca 1.0



