%chk=apoCaM-CA-Ng.loop3.water5.frame17.chk
%nprocshared=20
%mem=10GB
%nosave
#b3lyp/svp scf=(tight,noincore,xqc) Test 
#IOP(5/87=12) Density=Current Pop=(MK,readradii) iop(6/33=2) iop(6/42=6)

apoCaM-CA-Ng.loop3.water5.frame17 

   0  1 
C         82.91194       45.47884       85.79068
C         83.74519       46.37033       86.66258
O         84.93392       46.11839       86.79216
H         81.85311       45.81237       85.76225
H         83.31452       45.48568       84.75672
H         82.94330       44.44271       86.18880
N         83.18019       47.43192       87.30608
C         83.90085       48.32774       88.20359
C         84.42014       47.54803       89.40203
O         85.61402       47.54224       89.67162
C         85.00480       49.12302       87.46250
C         84.48080       49.97292       86.33158
O         85.25964       50.65592       85.68635
O         83.16870       50.00282       86.02332
H         82.17269       47.61097       87.17421
H         83.18083       49.07806       88.60317
H         85.77627       48.43546       87.05959
H         85.49696       49.80448       88.18976
N         83.53132       46.87902       90.19042
C         83.90287       46.17037       91.41422
C         84.66049       44.85679       91.17538
O         84.96296       44.19065       92.15623
C         82.64910       45.89806       92.28335
C         81.92699       47.20114       92.68159
C         80.89732       46.95778       93.79139
C         80.22230       48.27214       94.21104
N         79.38086       48.07563       95.39092
H         82.53256       46.94689       89.94138
H         84.55341       46.83700       92.02416
H         82.99546       45.40590       93.21869
H         81.94070       45.21128       91.76920
H         81.43405       47.65914       91.79708
H         82.67730       47.91969       93.07793
H         81.43305       46.53668       94.67009
H         80.12582       46.22844       93.46010
H         79.60800       48.66060       93.36798
H         80.99895       49.03087       94.45543
H         78.92550       48.98279       95.64204
H         78.64273       47.36056       95.20007
H         79.97196       47.76661       96.19750
N         85.01714       44.41841       89.93080
C         85.71414       43.15171       89.68121
C         87.00234       43.07783       90.48515
O         87.82016       43.98111       90.37574
C         86.02723       43.02349       88.17035
C         86.55245       41.67626       87.73384
O         86.84867       41.50890       86.56259
O         86.63817       40.63554       88.58560
H         84.78272       45.00040       89.11842
H         85.03521       42.32030       89.97310
H         86.76057       43.81164       87.88856
H         85.09415       43.19878       87.59246
N         87.23915       42.03282       91.33336
C         88.41997       41.96269       92.18005
C         89.73331       41.89729       91.42478
O         90.75915       42.07110       92.06812
H         86.53687       41.28309       91.42134
H         88.36039       41.08444       92.85883
H         88.42812       42.87665       92.81392
N         89.80767       41.66252       90.08030
C         91.07023       41.76507       89.35348
C         91.51471       43.21089       89.38395
O         92.61446       43.50915       89.82558
C         90.93770       41.32817       87.87572
C         90.51224       39.89662       87.71126
N         91.20688       38.88507       88.28080
O         89.53496       39.64683       87.02777
H         88.95171       41.44058       89.55388
H         91.83477       41.11436       89.83083
H         91.92850       41.43405       87.38945
H         90.21809       41.98263       87.33408
H         92.04872       39.06773       88.84394
H         90.90313       37.90936       88.15727
N         90.64837       44.16312       88.94656
C         90.89788       45.58881       88.93254
C         90.65059       46.11635       87.54485
O         89.68407       45.69704       86.92841
H         89.71713       43.85834       88.62488
H         91.91422       45.85434       89.29837
H         90.15559       46.06175       89.60862
N         91.43374       47.10220       87.02691
C         91.32349       47.67102       85.68418
C         91.82446       46.65899       84.66612
O         92.90920       46.86742       84.14485
C         89.93300       48.26197       85.32996
C         89.43517       49.27890       86.33667
C         89.49558       50.65392       86.05263
C         88.87650       48.86616       87.56076
C         89.02817       51.59053       86.98273
C         88.40732       49.79935       88.48372
C         88.48416       51.16686       88.20023
O         88.03414       52.07791       89.08600
H         92.17845       47.48747       87.62856
H         92.04139       48.52445       85.65682
H         89.15011       47.48687       85.19826
H         90.05201       48.75162       84.33783
H         89.91252       51.00354       85.11667
H         88.77671       47.82539       87.80974
H         89.08793       52.64715       86.75641
H         87.97837       49.45447       89.41662
H         87.64965       51.81931       89.93626
N         91.10573       45.53678       84.35649
C         91.57411       44.37696       83.59905
C         92.46872       43.51306       84.48617
O         92.09642       42.37619       84.74537
C         92.18820       44.71058       82.20931
C         91.32899       45.71420       81.39431
C         92.41280       43.41555       81.40038
C         89.88437       45.27648       81.13320
H         90.14477       45.45965       84.70506
H         90.67188       43.75370       83.39668
H         93.18289       45.18339       82.35368
H         91.82716       45.89959       80.41764
H         91.29475       46.68577       81.92969
H         91.45819       42.87874       81.22185
H         92.88239       43.64646       80.42131
H         93.08026       42.71609       81.93663
H         89.33088       45.15013       82.08641
H         89.36823       46.06293       80.54373
H         89.84414       44.33283       80.55369
N         93.62321       43.98891       85.04162
C         94.41544       43.21316       85.98909
C         95.18154       42.08458       85.32376
O         95.76252       41.28419       86.04334
C         95.39738       44.12594       86.74721
O         94.72073       45.19294       87.35869
H         93.91797       44.94965       84.85210
H         93.72185       42.78691       86.74573
H         96.13828       44.54773       86.03504
H         95.95983       43.55200       87.51795
H         94.09310       44.79878       88.01805
N         95.23344       41.95311       83.96243
C         95.94153       40.89232       83.25657
C         95.37147       39.50414       83.52587
O         95.93570       38.55417       82.99889
C         97.44846       40.95638       83.56131
H         94.77211       42.65441       83.37185
H         95.83594       41.07317       82.16307
H         97.99860       40.21689       82.94106
H         97.83919       41.96659       83.31307
H         97.67153       40.74004       84.62499
N         94.26545       39.29278       84.30768
C         93.75665       37.96228       84.61405
C         92.32258       37.77905       84.15588
O         91.62468       38.74980       83.89404
C         93.84777       37.72831       86.12087
H         93.76185       40.08677       84.72380
H         94.37366       37.18946       84.10646
H         93.47783       36.71645       86.38892
H         94.90195       37.82505       86.45631
H         93.24190       38.48921       86.65465
N         91.84289       36.51180       83.99438
C         90.49532       36.15891       83.55716
C         90.12871       36.67612       82.16653
O         88.99748       36.45349       81.75543
C         89.42409       36.49133       84.63575
C         89.75194       35.78001       85.96419
C         88.55311       35.47587       86.84188
O         88.28534       34.30084       87.04094
O         87.77320       36.39533       87.45465
H         92.48416       35.72589       84.18483
H         90.45939       35.05009       83.45563
H         88.46399       36.07849       84.25472
H         89.29769       37.58022       84.80106
H         90.54512       36.32721       86.51154
H         90.17646       34.78263       85.70927
N         91.02227       37.30914       81.35127
C         90.65979       37.75413       80.02224
H         89.84094       38.50184       80.08147
H         91.53603       38.22282       79.52549
H         90.32866       36.88856       79.40890
H         91.99465       37.46316       81.64723
Ca        87.24091       38.57052       87.83580
O         84.27710       38.24188       86.26257
H         83.69135       37.44931       86.16843
H         84.16862       38.73087       85.40885
O         87.00973       38.90277       84.76119
H         87.79446       39.49943       84.85173
H         86.32594       39.46221       84.31593
O         87.34483       38.19219       90.94772
H         87.16362       37.23865       91.14425
H         88.32276       38.28995       91.06897
O         84.18206       39.12354       89.38057
H         84.33503       39.57926       90.24620
H         83.23246       39.30487       89.16710
O         84.99018       36.11796       88.57908
H         84.01610       36.23465       88.44631
H         85.08941       35.94015       89.54788

Ca 1.0



