%chk=apoCaM-CA-Ng.loop3.water3.frame934.chk
%nprocshared=20
%mem=10GB
%nosave
#b3lyp/svp scf=(tight,noincore,xqc) Test 
#IOP(5/87=12) Density=Current Pop=(MK,readradii) iop(6/33=2) iop(6/42=6)

apoCaM-CA-Ng.loop3.water3.frame934 

   0  1 
C        -34.89039       95.76308       81.71739
C        -36.35086       95.84407       82.03542
O        -37.12379       95.05361       81.51117
H        -34.32090       95.58104       82.65402
H        -34.68764       94.92875       81.01265
H        -34.55422       96.71659       81.26198
N        -36.79825       96.76188       82.93587
C        -38.18981       96.80618       83.36542
C        -39.05270       97.48601       82.29967
O        -38.51238       98.19963       81.46511
C        -38.25792       97.48296       84.75873
C        -39.49280       97.23327       85.58076
O        -39.56098       97.75097       86.82021
O        -40.39652       96.51916       85.18725
H        -36.10408       97.37015       83.39857
H        -38.50615       95.75833       83.50630
H        -38.07844       98.57420       84.65280
H        -37.43714       97.05990       85.37799
N        -40.40095       97.29013       82.25919
C        -41.30229       97.92393       81.29392
C        -42.29745       98.85552       81.97424
O        -42.83674       99.71976       81.29665
C        -42.04677       96.86301       80.44489
C        -42.83184       95.85317       81.30732
C        -43.61920       94.84199       80.47167
C        -44.28324       93.80582       81.39358
N        -45.07127       92.84275       80.62835
H        -40.80265       96.64478       82.94130
H        -40.71499       98.56473       80.59964
H        -41.30540       96.30320       79.83455
H        -42.74180       97.38237       79.74764
H        -43.54202       96.39139       81.97079
H        -42.11785       95.27982       81.93077
H        -42.93363       94.31645       79.77169
H        -44.39530       95.37834       79.88311
H        -44.94609       94.32178       82.12346
H        -43.49683       93.26163       81.96418
H        -45.83123       93.33615       80.10699
H        -44.45678       92.32368       79.95984
H        -45.50843       92.16142       81.28948
N        -42.62158       98.72021       83.29095
C        -43.53869       99.59757       84.00190
C        -42.87668      100.22429       85.22555
O        -43.54688      100.98261       85.91278
C        -44.84155       98.82977       84.32736
C        -44.64779       97.47088       84.94800
O        -45.04797       96.47600       84.36460
O        -44.05433       97.33317       86.14157
H        -42.23044       97.94041       83.83233
H        -43.84683      100.45696       83.36621
H        -45.37658       98.67446       83.36488
H        -45.49877       99.45261       84.97017
N        -41.56063      100.01546       85.53960
C        -40.90679      100.67934       86.65651
C        -41.43829      100.27894       88.01790
O        -41.00531      100.88243       88.98906
H        -40.96960       99.42350       84.94208
H        -41.02406      101.77621       86.52753
H        -39.81706      100.45432       86.63985
N        -42.33856       99.26524       88.18494
C        -42.85934       98.86426       89.48829
C        -42.38064       97.43893       89.81880
O        -41.17203       97.16660       89.18173
C        -44.40160       98.86930       89.46323
C        -44.97592      100.18284       88.99887
N        -45.77880      100.23305       87.90795
O        -44.72265      101.20729       89.61370
H        -42.63637       98.72290       87.37033
H        -42.48859       99.55763       90.27385
H        -44.79801       98.63980       90.47400
H        -44.74829       98.06603       88.77560
H        -46.01292       99.37814       87.38142
H        -46.17571      101.12837       87.58746
N        -42.28451       97.17596       91.26845
C        -42.23193       95.72726       91.52444
C        -40.89163       95.10753       91.17826
O        -39.92271       95.81325       90.93471
H        -43.16400       97.52218       91.71740
H        -43.03435       95.22817       90.93445
H        -42.43800       95.51997       92.59819
N        -40.78090       93.75348       91.12363
C        -39.57186       93.05391       90.68417
C        -39.25252       93.34237       89.20554
O        -39.86477       94.21950       88.62356
C        -39.72773       91.53481       90.96053
C        -39.84424       91.21775       92.43585
C        -40.92513       90.46492       92.92285
C        -38.84437       91.63673       93.33568
C        -40.99835       90.13113       94.28038
C        -38.92810       91.31545       94.69113
C        -39.99849       90.55615       95.16831
O        -40.04946       90.23468       96.47653
H        -41.61008       93.19505       91.38247
H        -38.70106       93.40951       91.27086
H        -38.82751       90.98456       90.63470
H        -40.59281       91.13452       90.38665
H        -41.70030       90.11828       92.25122
H        -37.99193       92.20933       92.99596
H        -41.82803       89.53616       94.63974
H        -38.15142       91.64854       95.36856
H        -40.75900       89.69081       96.84626
N        -38.28315       92.63306       88.54804
C        -37.79779       92.83450       87.17887
C        -38.90823       92.85360       86.13269
O        -39.67731       93.80469       86.09650
C        -36.89390       94.09728       87.07317
C        -36.22701       94.23664       85.67280
C        -35.82467       94.10605       88.18297
C        -35.29439       93.08425       85.27124
H        -37.80736       91.87697       89.05420
H        -37.14238       91.96170       86.97452
H        -37.52467       95.00057       87.23076
H        -35.63552       95.17759       85.65318
H        -37.01323       94.32668       84.89478
H        -36.30261       94.13356       89.18495
H        -35.18385       93.20152       88.13624
H        -35.18599       95.01020       88.09647
H        -34.85854       93.29536       84.27261
H        -34.45619       92.97311       85.98890
H        -35.84245       92.12357       85.19504
N        -39.03779       91.84636       85.22067
C        -40.07257       91.87228       84.18644
C        -40.42298       90.47955       83.67875
O        -39.74306       89.51360       84.00037
C        -39.64794       92.83401       83.05715
O        -40.63000       92.94241       82.06549
H        -38.40525       91.03546       85.29429
H        -41.01228       92.23247       84.66049
H        -38.69720       92.46750       82.60792
H        -39.48729       93.83361       83.49859
H        -40.24415       93.51867       81.35451
N        -41.55713       90.30881       82.94092
C        -42.11308       89.01115       82.55353
C        -43.38295       89.23342       81.72929
O        -44.17481       90.08047       82.12121
C        -42.47031       88.19347       83.80275
H        -42.09174       91.15666       82.69808
H        -41.35349       88.44947       81.97751
H        -42.89644       87.21350       83.50688
H        -41.57412       87.98120       84.41882
H        -43.20898       88.73762       84.42817
N        -43.69510       88.54614       80.59098
C        -43.06218       87.30248       80.16774
C        -43.64189       86.16843       81.00573
O        -44.80103       86.27513       81.38458
C        -43.36210       87.04188       78.68977
H        -44.57869       88.80325       80.12105
H        -41.96328       87.38506       80.24053
H        -42.95644       87.87380       78.07514
H        -42.87685       86.09872       78.36175
H        -44.45563       86.96285       78.51101
N        -42.94196       85.06797       81.39992
C        -41.59020       84.71732       80.99395
C        -40.65903       84.87645       82.17402
O        -39.71060       85.64150       82.06633
C        -41.56826       83.26819       80.45987
C        -42.36473       83.12191       79.15446
C        -42.36824       81.69476       78.68364
O        -43.42406       81.09956       78.53713
O        -41.20810       81.06619       78.41268
H        -43.42108       84.41371       82.03994
H        -41.21642       85.37408       80.18303
H        -41.98765       82.58117       81.22895
H        -40.51618       82.96676       80.26228
H        -41.90079       83.75487       78.36778
H        -43.41312       83.45955       79.30702
N        -40.87225       84.20196       83.33895
C        -40.01382       84.33345       84.49914
H        -39.16163       85.02324       84.32186
H        -40.60623       84.72539       85.35193
H        -39.60523       83.33757       84.76804
H        -41.68300       83.57118       83.42057
Ca       -41.87459       95.78202       87.51385
O        -44.69203       95.08811       88.08722
H        -45.31254       94.86402       87.34909
H        -45.24356       95.59170       88.73643
O        -42.79395       92.72742       88.16749
H        -43.62877       92.28482       88.46398
H        -42.38060       92.08459       87.53809
O        -42.94223       94.05670       85.03737
H        -43.48549       93.26638       84.79102
H        -42.99755       94.65211       84.24889

Ca 1.0



