%chk=apoCaM-CA-Ng.loop1.water3.frame1326.chk
%nprocshared=20
%mem=10GB
%nosave
#b3lyp/svp scf=(tight,noincore,xqc) Test 
#IOP(5/87=12) Density=Current Pop=(MK,readradii) iop(6/33=2) iop(6/42=6)

apoCaM-CA-Ng.loop1.water3.frame1326 

   0  1 
C         39.33752       53.48621       12.28158
C         40.49002       52.53609       12.47321
O         41.62606       52.92511       12.24427
H         38.36544       53.00345       12.52217
H         39.45972       54.36905       12.94234
H         39.29909       53.82304       11.22405
N         40.26196       51.26238       12.90120
C         41.30150       50.25163       13.12665
C         41.87352       49.63650       11.83772
O         42.48171       48.57780       11.91941
C         40.72358       49.12813       14.02695
C         39.60954       48.31112       13.41468
O         39.05452       47.31855       14.13438
O         39.20671       48.52493       12.28146
H         39.28832       51.01832       13.13970
H         42.12767       50.69720       13.72407
H         40.34622       49.59042       14.96505
H         41.54451       48.43316       14.30766
N         41.71490       50.22575       10.62000
C         42.10851       49.62729        9.34379
C         43.55158       49.14702        9.33945
O         43.73938       47.97006        9.06233
C         41.79097       50.58688        8.17123
C         40.26834       50.81094        8.06691
C         39.89972       51.92015        7.08409
C         38.37422       52.10393        7.06552
N         37.98693       53.23997        6.23401
H         41.28345       51.15039       10.58587
H         41.48456       48.71897        9.18002
H         42.14597       50.15405        7.20984
H         42.31061       51.55453        8.31947
H         39.84722       51.11775        9.04392
H         39.78146       49.85392        7.77735
H         40.26859       51.67615        6.06458
H         40.37634       52.86627        7.42421
H         38.00217       52.28029        8.10089
H         37.89836       51.17490        6.67975
H         38.35892       54.12452        6.65105
H         38.35408       53.12150        5.26277
H         36.94321       53.29639        6.20343
N         44.63484       49.89536        9.68486
C         44.64560       51.28311       10.12979
C         44.86378       51.32001       11.63418
O         44.93663       50.26316       12.24843
C         45.63881       52.09756        9.25552
C         46.94354       51.40675        8.92026
O         47.85672       51.09927        9.85485
O         47.17662       51.10855        7.75898
H         45.54006       49.39783        9.71371
H         43.66040       51.76714       10.01737
H         45.82803       53.10282        9.68567
H         45.12579       52.25538        8.28114
N         44.91305       52.50208       12.31658
C         44.88892       52.56002       13.77167
C         46.21374       53.02580       14.39211
O         47.24864       52.12767       14.12941
H         44.89809       53.39340       11.79779
H         44.63068       51.57613       14.21668
H         44.07338       53.25928       14.06523
N         46.01536       53.12071       15.85127
C         47.26334       53.08385       16.66551
C         47.16092       54.02541       17.87329
O         46.05504       54.37822       18.25903
C         47.51759       51.64297       17.21592
C         47.97144       50.62888       16.20491
O         49.03721       50.77522       15.62495
O         47.22726       49.53349       15.96154
H         45.51119       54.02872       15.97467
H         48.10745       53.43654       16.04458
H         46.59130       51.28694       17.71475
H         48.30566       51.63876       17.98836
N         48.25898       54.47157       18.56038
C         49.63932       54.18481       18.19781
C         50.03834       54.81816       16.88782
O         49.33771       55.68551       16.38564
H         48.10507       55.05790       19.39521
H         49.80637       53.09594       18.15686
H         50.32947       54.57682       18.97524
N         51.17480       54.40097       16.26920
C         51.65437       54.95657       15.00988
C         50.63719       54.78312       13.89185
O         50.04377       53.72409       13.74818
C         53.01097       54.33340       14.58621
C         54.12328       54.60925       15.60709
O         53.41538       54.82780       13.33069
H         51.71503       53.64792       16.72052
H         51.83918       56.04410       15.15548
H         52.88397       53.23261       14.49239
H         53.48256       55.81655       13.39593
H         54.27691       55.70433       15.71764
H         53.88412       54.18315       16.60121
H         55.07159       54.15219       15.25504
N         50.46926       55.81250       13.01704
C         49.60782       55.85202       11.84500
C         49.96184       54.76086       10.85541
O         49.60894       53.61026       11.06836
C         48.08829       55.86965       12.18409
C         47.74829       56.85206       13.33307
C         47.25806       56.19848       10.92416
C         48.18955       58.30210       13.11039
H         51.04144       56.65732       13.16706
H         49.82442       56.82852       11.35732
H         47.77827       54.86150       12.53829
H         48.23693       56.49035       14.25834
H         46.65176       56.83162       13.51566
H         47.42342       55.44173       10.12964
H         46.17333       56.20607       11.16274
H         47.53416       57.19165       10.50976
H         49.29051       58.37135       12.99575
H         47.69926       58.74283       12.22011
H         47.91113       58.90534       13.99946
N         50.60696       55.08668        9.70436
C         50.83779       54.15250        8.61421
C         52.29935       54.05696        8.19637
O         52.55377       53.30832        7.26439
C         49.90877       54.53638        7.43246
C         50.06550       55.98995        6.97342
O         48.57276       54.35170        7.81729
H         50.88559       56.06797        9.56334
H         50.55323       53.11707        8.90924
H         50.12453       53.87976        6.55736
H         48.42524       53.37266        7.84763
H         49.77186       56.69557        7.77982
H         51.10895       56.19869        6.66281
H         49.38306       56.18275        6.11994
N         53.31422       54.73393        8.82302
C         54.72193       54.55725        8.44478
C         55.12127       53.11054        8.70880
O         55.32952       52.73582        9.85378
C         55.64324       55.56664        9.17853
C         55.36094       57.00030        8.71549
O         55.45108       55.49706       10.57076
H         53.08695       55.37315        9.59663
H         54.81797       54.76064        7.35407
H         56.70936       55.36077        8.91837
H         56.14463       54.89263       10.94087
H         54.30750       57.28860        8.91504
H         56.02634       57.71102        9.24944
H         55.55428       57.09404        7.62507
N         55.05900       52.21241        7.68146
C         55.08094       50.75551        7.80793
C         53.95788       50.25322        8.71209
O         53.46592       50.99851        9.54403
C         56.43429       50.17922        8.25362
C         57.60454       50.67013        7.39032
C         58.88496       49.90555        7.74992
C         60.10577       50.46265        7.00870
N         61.29907       49.67137        7.30984
H         54.86450       52.57372        6.73482
H         54.87740       50.35917        6.78641
H         56.36424       49.07063        8.17603
H         56.63853       50.44050        9.31421
H         57.74424       51.75915        7.56715
H         57.38617       50.50765        6.31154
H         58.74429       48.83463        7.48126
H         59.07325       49.97651        8.84325
H         60.27171       51.51679        7.32551
H         59.92654       50.44869        5.91092
H         61.17573       48.69420        6.95695
H         62.12562       50.09981        6.83436
H         61.47306       49.65247        8.34114
N         53.47189       48.98905        8.58034
C         52.40074       48.46815        9.43126
C         51.17489       49.37749        9.42176
O         50.78104       49.79037       10.50292
C         51.99444       47.02679        9.05580
C         53.13744       46.02055        9.24181
C         52.69054       44.64672        8.83346
O         53.26055       44.06111        7.92670
O         51.65498       44.05572        9.45995
H         53.86605       48.39438        7.83702
H         52.77636       48.43111       10.48082
H         51.63285       46.97979        8.01035
H         51.15446       46.71762        9.71847
H         53.45196       46.00134       10.30767
H         54.01312       46.31074        8.62520
N         50.49827       49.76683        8.30198
C         50.81654       49.42609        6.93349
H         51.71982       48.80735        6.82689
H         49.95707       48.88213        6.48962
H         50.98225       50.36215        6.36073
H         49.68556       50.38330        8.42479
Ca        47.61035       51.57269       11.99742
O         51.26466       49.50330       13.58884
H         51.04412       48.79390       14.24341
H         52.17551       49.27648       13.27325
O         48.06912       48.51274       12.64108
H         48.17941       48.31918       13.60569
H         47.09105       48.47717       12.49146
O         51.89313       52.08245       11.88686
H         51.70890       52.17520       10.92032
H         52.32144       52.93955       12.12096

Ca 1.0



