%chk=apoCaM-CA-Ng.loop4.water5.frame1009.chk
%nprocshared=20
%mem=10GB
%nosave
#b3lyp/svp scf=(tight,noincore,xqc) Test 
#IOP(5/87=12) Density=Current Pop=(MK,readradii) iop(6/33=2) iop(6/42=6)

apoCaM-CA-Ng.loop4.water5.frame1009 

   -3  1 
C         17.12496       43.85666       22.82207
C         17.86650       44.11688       21.54094
O         19.07837       43.95788       21.52909
H         16.38630       43.04244       22.66289
H         17.82814       43.53678       23.62089
H         16.60448       44.77475       23.16165
N         17.23834       44.48846       20.38913
C         15.80178       44.71526       20.24454
C         15.16741       43.62757       19.39553
O         13.96472       43.67965       19.17717
C         15.56648       46.10796       19.61205
C         16.35911       47.13124       20.37149
O         16.13823       47.26880       21.68750
O         17.28616       47.72153       19.83920
H         17.81623       44.60296       19.54564
H         15.29976       44.69090       21.23331
H         14.48563       46.36555       19.61991
H         15.89776       46.09555       18.55436
N         15.91165       42.59604       18.89415
C         15.35160       41.52486       18.07969
C         14.77344       42.03363       16.76147
O         14.11348       41.25258       16.08964
C         16.42052       40.41410       17.78920
C         17.63521       40.97100       16.98382
C         16.86782       39.73636       19.10033
C         18.62883       39.90071       16.53309
H         16.90992       42.54992       19.12164
H         14.51735       41.06825       18.65852
H         15.92562       39.63020       17.17373
H         18.19505       41.72880       17.56946
H         17.26589       41.46446       16.06382
H         17.40631       40.44120       19.76725
H         15.98473       39.33971       19.64387
H         17.53522       38.87502       18.89703
H         19.11594       39.40786       17.39790
H         18.11688       39.14045       15.90698
H         19.42869       40.37761       15.92681
N         15.04027       43.28798       16.28593
C         14.66890       43.70857       14.93897
C         14.34890       45.20036       14.90972
O         14.96877       45.96217       15.64011
C         15.87092       43.38248       14.02116
C         15.64324       43.50457       12.53560
O         14.44144       43.81476       12.01980
O         16.56554       43.26083       11.77504
H         15.70069       43.88296       16.80647
H         13.79177       43.12401       14.58164
H         16.15712       42.32198       14.18728
H         16.72909       44.02242       14.31697
N         13.46714       45.69935       13.99716
C         13.22519       47.11899       13.78869
C         14.51868       47.85957       13.51465
O         15.30222       47.41237       12.68901
H         12.96643       45.04791       13.37810
H         12.70814       47.55186       14.67200
H         12.55357       47.23280       12.91039
N         14.79682       49.01156       14.18849
C         16.05945       49.73882       14.09156
C         15.86322       51.08059       13.39879
O         14.92044       51.77942       13.74343
C         16.68545       49.94037       15.49276
C         15.88776       50.81965       16.42827
O         14.66993       50.44435       16.86262
O         16.36147       51.87329       16.82283
H         14.06399       49.39251       14.80203
H         16.79639       49.13620       13.52846
H         17.68552       50.40663       15.34707
H         16.84323       48.95287       15.97659
N         16.73064       51.57235       12.46193
C         17.95980       50.91938       12.02980
C         17.71037       49.72163       11.13688
O         16.55910       49.48387       10.79873
H         16.54759       52.51714       12.08776
H         18.56272       50.66052       12.92300
H         18.52395       51.65239       11.42279
N         18.70528       48.90523       10.66462
C         20.13800       48.93240       10.98286
C         20.41594       48.55336       12.43207
O         19.49229       48.30795       13.19595
C         20.85602       50.24505       10.57507
C         20.68063       50.58496        9.09058
C         21.55219       51.75891        8.71370
N         21.01345       52.90537        8.24028
O         22.76586       51.66912        8.83350
H         18.41313       48.14989       10.02392
H         20.61711       48.12674       10.38106
H         21.94346       50.11613       10.74518
H         20.55449       51.09941       11.20536
H         19.61083       50.80395        8.88727
H         20.98694       49.71683        8.46732
H         19.99481       53.00605        8.12901
H         21.62134       53.69840        7.98547
N         21.70531       48.45751       12.86464
C         22.08499       48.04175       14.20590
C         22.00561       46.52769       14.26401
O         22.59820       45.87426       13.41629
C         23.51752       48.55601       14.54290
C         23.93167       48.16794       15.97110
C         23.59378       50.08922       14.41939
H         22.46742       48.64806       12.19958
H         21.40629       48.51161       14.95422
H         24.24791       48.11358       13.82994
H         23.94847       47.07224       16.08571
H         24.95517       48.53888       16.19240
H         23.22686       48.59382       16.71789
H         24.62086       50.44195       14.65361
H         23.35622       50.42529       13.38934
H         22.88188       50.57506       15.12128
N         21.31260       45.90393       15.25535
C         21.18622       44.44774       15.35541
C         22.07130       43.86546       16.45026
O         22.15254       42.64830       16.54934
C         19.70434       44.08051       15.55643
C         19.16117       44.71338       16.81441
N         18.20286       45.66486       16.74817
O         19.62208       44.39311       17.89961
H         20.89297       46.49070       15.99281
H         21.53765       43.97375       14.41336
H         19.57090       42.97908       15.60709
H         19.13984       44.45071       14.67428
H         17.81129       45.96596       15.84440
H         17.87633       46.12770       17.60523
N         22.77846       44.66671       17.29440
C         23.70859       44.16099       18.29887
C         24.07922       45.24362       19.30781
O         23.65942       46.38564       19.17064
C         24.97209       43.53451       17.64492
C         25.70389       44.47385       16.70853
C         26.92406       45.06033       17.08556
C         25.18343       44.75173       15.43181
C         27.59293       45.92552       16.21062
C         25.85479       45.60851       14.55861
C         27.05989       46.20437       14.94706
O         27.71270       47.04043       14.11480
H         22.63314       45.67953       17.23062
H         23.18556       43.38378       18.89999
H         24.71475       42.61465       17.07872
H         25.65489       43.20171       18.45431
H         27.35303       44.85843       18.05899
H         24.26303       44.29970       15.09818
H         28.52720       46.37988       16.51464
H         25.43499       45.80818       13.58073
H         27.37171       47.25838       13.23508
N         24.80991       44.91684       20.41000
C         25.03325       45.83382       21.51571
C         24.35701       45.20898       22.71580
O         24.93261       44.31694       23.32675
C         26.55015       46.05106       21.71321
C         26.93386       47.04569       22.82432
C         26.54615       48.46881       22.51297
O         25.25260       48.82820       22.41516
O         27.41272       49.31810       22.37631
H         25.15415       43.94970       20.51600
H         24.55622       46.80898       21.29923
H         26.99751       46.40608       20.75856
H         27.01627       45.06893       21.95021
H         28.04120       47.00659       22.92750
H         26.49456       46.73898       23.79684
N         23.05786       45.51338       23.01153
C         22.31730       44.79345       24.04339
C         22.08259       43.32573       23.67173
O         21.58512       42.59302       24.51622
C         20.96898       45.47848       24.39496
C         21.17964       46.92204       24.88845
C         20.01455       47.44496       25.69194
O         20.19726       47.72810       26.86528
O         18.76945       47.58692       25.19710
H         22.58492       46.25512       22.47578
H         22.93246       44.81260       24.97112
H         20.52387       44.88906       25.22748
H         20.25409       45.46573       23.54294
H         21.41111       47.59669       24.03858
H         22.05550       46.92477       25.57461
N         22.41707       42.81191       22.44998
C         22.24022       41.41194       22.12773
H         22.59327       41.21369       21.09236
H         22.83621       40.78473       22.82532
H         21.16800       41.13423       22.19893
H         22.81456       43.41055       21.71487
Ca        17.84291       47.36649       23.15943
O         19.98512       51.35116       22.13804
H         20.46744       51.80987       21.40491
H         19.46572       52.06911       22.58002
O         16.94425       50.51664       23.21961
H         16.16814       51.01249       22.85596
H         16.58066       50.02126       23.99594
O         17.21556       51.23149       20.12779
H         17.59459       51.84865       19.45269
H         16.43213       50.82324       19.68067
O         21.22387       48.22083       21.20921
H         21.59852       47.61856       20.51850
H         22.00838       48.71106       21.56252
O         19.88877       49.96395       19.08511
H         20.24195       49.21114       18.54767
H         19.91658       50.74190       18.47331

Ca 1.0



