%chk=apoCaM-CA-Ng.loop4.water5.frame616.chk
%nprocshared=20
%mem=10GB
%nosave
#b3lyp/svp scf=(tight,noincore,xqc) Test 
#IOP(5/87=12) Density=Current Pop=(MK,readradii) iop(6/33=2) iop(6/42=6)

apoCaM-CA-Ng.loop4.water5.frame616 

   -3  1 
C         96.38566       17.62135       96.89890
C         97.77526       17.18820       96.53953
O         98.21672       17.49333       95.44134
H         95.66449       17.18526       96.17603
H         96.10728       17.28771       97.92046
H         96.32109       18.72866       96.85671
N         98.52948       16.47000       97.42416
C         99.87925       15.97713       97.15174
C        100.90537       17.09899       96.98262
O        102.04581       16.79229       96.66115
C         99.88082       15.02743       95.92919
C         98.82055       13.96723       96.05025
O         97.94510       13.88498       95.20361
O         98.80080       13.12271       97.09771
H         98.11865       16.22713       98.33862
H        100.20825       15.37175       98.02661
H        100.87344       14.53507       95.84116
H         99.71134       15.59902       94.99224
N        100.59174       18.41419       97.19883
C        101.54151       19.50629       96.98876
C        102.76978       19.35163       97.88042
O        102.60421       18.95155       99.02477
C        100.90792       20.91654       97.21225
C        100.44397       21.14549       98.67770
C         99.76690       21.16153       96.20797
C        100.00158       22.58053       98.95875
H         99.64477       18.65520       97.51076
H        101.83634       19.44650       95.92360
H        101.70643       21.65967       96.98642
H        101.28860       20.95927       99.36969
H         99.61972       20.45007       98.94132
H        100.13491       21.01177       95.17808
H         98.91201       20.47624       96.37878
H         99.40085       22.20523       96.26175
H         99.10568       22.85577       98.36910
H         99.74260       22.67747      100.03409
H        100.83022       23.28499       98.73098
N        104.04479       19.60697       97.46423
C        104.43710       20.05950       96.13265
C        104.92619       18.86382       95.34744
O        104.44238       18.62859       94.24969
C        105.46940       21.21439       96.17575
C        106.83376       20.85181       96.70465
O        107.80956       20.93911       95.97540
O        106.99928       20.46379       97.98256
H        104.79458       19.39949       98.13917
H        103.58111       20.50889       95.59246
H        105.06167       22.05813       96.77389
H        105.59753       21.58104       95.13148
N        105.83176       18.00937       95.89832
C        106.30203       16.80968       95.24426
C        107.20004       17.15194       94.09224
O        108.17530       17.86222       94.29556
H        106.17719       18.18119       96.85219
H        105.43907       16.17460       94.94278
H        106.91079       16.22856       95.96856
N        106.96443       16.63918       92.85494
C        107.86505       16.87455       91.73223
C        107.80944       18.30905       91.20072
O        108.58242       18.61583       90.30404
C        107.66593       15.78239       90.64841
C        106.27629       15.64730       90.08178
O        105.78632       16.52681       89.40098
O        105.58154       14.51112       90.28132
H        106.16739       15.99489       92.73776
H        108.90667       16.71057       92.09043
H        107.91197       14.81054       91.13005
H        108.39309       15.92724       89.82264
N        106.96164       19.25574       91.71217
C        106.91461       20.63504       91.24050
C        106.33342       20.79132       89.84470
O        106.24021       21.91981       89.38694
H        106.33710       19.01963       92.49238
H        107.93509       21.07658       91.28711
H        106.26320       21.22257       91.92372
N        105.91588       19.71404       89.11802
C        105.35478       19.75180       87.77325
C        103.94458       20.32170       87.72952
O        103.44807       20.52091       86.62691
C        106.33039       20.40587       86.75939
C        107.69566       19.69081       86.69304
C        107.56236       18.24315       86.27980
N        108.00301       17.24896       87.08522
O        107.05012       17.96666       85.20531
H        106.00633       18.78891       89.52674
H        105.21455       18.70402       87.42932
H        106.49641       21.47505       87.00249
H        105.87871       20.37166       85.74390
H        108.20319       19.76833       87.67850
H        108.33541       20.20709       85.94550
H        108.44447       17.46033       87.98967
H        107.90479       16.26203       86.80398
N        103.19039       20.50718       88.85835
C        101.80501       20.97733       88.82109
C        100.81849       19.94199       89.38620
O         99.62740       20.15508       89.23903
C        101.70185       22.32246       89.61487
C        102.72511       23.34863       89.10314
C        100.30326       22.96751       89.55557
H        103.60371       20.30801       89.78242
H        101.50130       21.16402       87.76725
H        101.94179       22.12096       90.68308
H        102.54025       23.58933       88.03523
H        102.65881       24.28289       89.70158
H        103.75961       22.96620       89.21474
H        100.00874       23.16494       88.50250
H         99.53175       22.34217       90.04271
H        100.30037       23.92763       90.11329
N        101.21986       18.83962       90.09595
C        100.26953       18.02247       90.86281
C        100.34673       16.55095       90.50136
O        101.15648       16.17641       89.66869
C        100.58760       18.23374       92.35639
C        100.49564       19.70114       92.69956
N        101.59862       20.39496       93.06665
O         99.41975       20.27456       92.61520
H        102.21953       18.63805       90.22077
H         99.22192       18.34463       90.68040
H        101.61658       17.86107       92.55601
H         99.88938       17.67028       93.01077
H        102.51770       19.93630       93.12165
H        101.53895       21.40209       93.27715
N         99.50832       15.65575       91.11724
C         99.54683       14.21640       90.86709
C         98.20120       13.72784       90.33295
O         97.25377       14.49816       90.29930
C         99.92888       13.51398       92.18916
C        100.32633       12.07022       92.02182
C         99.59365       11.04043       92.63368
C        101.46462       11.74668       91.26425
C         99.98891        9.70743       92.47855
C        101.86084       10.41655       91.11536
C        101.12603        9.39219       91.71904
O        101.52470        8.11351       91.56629
H         98.82995       16.00322       91.81031
H        100.31790       14.00407       90.09827
H         99.08313       13.62274       92.90067
H        100.80642       14.03004       92.63733
H         98.72013       11.26573       93.23061
H        102.05220       12.52662       90.79603
H         99.41450        8.92171       92.95269
H        102.74324       10.18396       90.53261
H        101.04918        7.37390       91.96999
N         98.07487       12.46570       89.82449
C         96.85297       11.95770       89.20690
C         96.56521       10.53596       89.69808
O         96.73593        9.60976       88.91541
C         97.03155       11.95865       87.66680
C         97.23480       13.36549       87.08869
C         97.31287       13.31252       85.58936
O         98.31654       13.69645       85.01080
O         96.26899       12.84925       84.87435
H         98.91317       11.87017       89.77172
H         95.97523       12.60658       89.40567
H         96.10877       11.52979       87.21406
H         97.89702       11.31979       87.37986
H         98.17112       13.80558       87.49472
H         96.38157       14.01793       87.37327
N         96.12544       10.21997       90.95110
C         95.76338       11.14275       92.02222
C         94.57649       11.99320       91.61304
O         93.54909       11.44443       91.23592
C         95.38334       10.31226       93.27530
C         95.01315       11.15902       94.50169
C         94.62630       10.26709       95.65228
O         95.33391       10.27001       96.79931
O         93.66230        9.52465       95.54882
H         96.01186        9.21045       91.14319
H         96.63552       11.78022       92.27779
H         96.24822        9.66694       93.54853
H         94.52520        9.64928       93.02037
H         94.15222       11.82323       94.27413
H         95.88178       11.79130       94.77705
N         94.63663       13.34909       91.69851
C         93.51424       14.19084       91.34706
H         92.63866       13.94019       91.98399
H         93.77578       15.25788       91.50939
H         93.24959       14.04500       90.27847
H         95.49660       13.79963       92.04349
Ca        97.11337       11.62528       97.10470
O         97.03343        8.88449       99.11723
H         97.86938        8.44869       98.81475
H         96.31606        8.41989       98.61757
O         94.52589       13.51427       97.23839
H         94.69725       13.62666       96.26974
H         93.81557       12.82599       97.28666
O         98.62602       11.37040      100.07506
H         99.42323       11.95065       99.98525
H         98.80361       10.82673      100.88349
O         94.83133       11.17182       99.67380
H         94.65492       11.95164      100.25758
H         93.93359       10.86662       99.38813
O         99.36515       10.02867       95.76582
H         98.80378        9.40833       96.29531
H         99.91411       10.50458       96.43841

Ca 1.0



