%chk=apoCaM-CA-Ng.loop2.water4.frame701.chk
%nprocshared=20
%mem=10GB
%nosave
#b3lyp/svp scf=(tight,noincore,xqc) Test 
#IOP(5/87=12) Density=Current Pop=(MK,readradii) iop(6/33=2) iop(6/42=6)

apoCaM-CA-Ng.loop2.water4.frame701 

   -2  1 
C         79.12009       12.59511      -10.75751
C         80.02551       13.70984      -11.18685
O         79.61101       14.53624      -11.98738
H         78.12768       12.68543      -11.24966
H         79.57040       11.62069      -11.03969
H         78.97707       12.62989       -9.65728
N         81.28746       13.79757      -10.67987
C         82.22687       14.84637      -11.05147
C         82.53342       15.70149       -9.83716
O         82.95316       15.17932       -8.81355
C         83.50224       14.22838      -11.65083
C         84.44219       15.29232      -12.15439
O         85.68784       15.38884      -11.65325
O         84.08136       16.06957      -13.02491
H         81.59373       13.09090       -9.99220
H         81.78558       15.49185      -11.84208
H         83.22425       13.58289      -12.51238
H         84.01444       13.59605      -10.89328
N         82.36124       17.04988       -9.90615
C         82.59638       17.95752       -8.78649
C         81.46415       17.84966       -7.76321
O         80.44078       17.26673       -8.09487
C         82.64052       19.39006       -9.35618
H         82.07934       17.45013      -10.81480
H         83.58139       17.71552       -8.33016
H         82.82277       20.17801       -8.60941
H         83.45274       19.45971      -10.11112
H         81.67684       19.62971       -9.85573
N         81.50414       18.42481       -6.52174
C         82.69032       19.02286       -5.91039
C         83.67583       17.95761       -5.46410
O         83.34461       16.77997       -5.46023
C         82.30780       19.95131       -4.72958
C         81.58019       19.29105       -3.58395
O         81.20949       20.03538       -2.52518
O         81.31598       18.09977       -3.59763
H         80.63454       18.39346       -5.96814
H         83.19666       19.67233       -6.63859
H         81.65874       20.76353       -5.12199
H         83.22846       20.42414       -4.32411
N         84.93425       18.31906       -5.09609
C         85.94277       17.37927       -4.63773
C         87.02070       17.20411       -5.68666
O         86.87814       17.74165       -6.77670
H         85.21146       19.30995       -5.17842
H         85.50860       16.38439       -4.40936
H         86.37117       17.79018       -3.69881
N         88.15913       16.48856       -5.45554
C         88.48598       15.85731       -4.17699
C         87.69080       14.57428       -3.95716
O         87.00160       14.14050       -4.87002
C         90.01341       15.62021       -4.07625
C         90.55459       14.52903       -4.97608
N         91.25417       13.49688       -4.44875
O         90.38668       14.58410       -6.18486
H         88.86049       16.48380       -6.21105
H         88.25243       16.58643       -3.37291
H         90.26893       15.37954       -3.02302
H         90.52837       16.57522       -4.32340
H         91.43147       13.44008       -3.43523
H         91.63827       12.75920       -5.05730
N         87.75371       13.90550       -2.76682
C         87.07348       12.63623       -2.52397
C         86.04660       12.67874       -1.39927
O         85.47686       11.63446       -1.11597
H         88.33389       14.29386       -2.00746
H         87.84806       11.88142       -2.26300
H         86.55827       12.27245       -3.43734
N         85.76475       13.81536       -0.69691
C         84.83880       13.84626        0.44165
C         83.39517       13.58593        0.02099
O         82.89218       14.29771       -0.82931
C         84.93152       15.20678        1.16915
C         84.01913       15.23443        2.40564
O         86.26159       15.41006        1.57302
H         86.26727       14.68150       -0.93976
H         85.16519       13.07514        1.17497
H         84.62864       16.01414        0.46296
H         86.32986       16.35053        1.88252
H         84.30367       14.42188        3.10823
H         84.11341       16.20956        2.92520
H         82.95419       15.10528        2.11924
N         82.66450       12.59850        0.61796
C         81.27120       12.28023        0.28155
C         80.30110       13.36072        0.79137
O         80.28211       13.62412        1.98517
C         80.84300       10.89598        0.88551
C         79.40049       10.54033        0.41476
C         81.82422        9.77236        0.47916
C         78.83579        9.23928        0.98518
H         83.14132       12.03279        1.33309
H         81.20062       12.16829       -0.82220
H         80.85594       10.97204        1.99589
H         79.37860       10.47392       -0.69333
H         78.70082       11.34101        0.72833
H         82.85839        9.97143        0.81890
H         81.54877        8.81485        0.96382
H         81.83556        9.63686       -0.62232
H         78.81713        9.28162        2.09393
H         77.79698        9.10286        0.61556
H         79.41794        8.35766        0.65131
N         79.40295       13.94736       -0.05624
C         78.34401       14.87919        0.32608
C         76.93825       14.34780       -0.00315
O         75.99072       15.04732        0.32983
C         78.53159       16.18756       -0.45886
C         79.82849       16.86944       -0.15872
O         80.81080       16.87071       -1.07922
O         79.99325       17.43798        0.90899
H         79.45358       13.71650       -1.04266
H         78.37895       15.08100        1.41961
H         77.70907       16.90993       -0.25857
H         78.49786       15.94153       -1.54215
N         76.70363       13.15432       -0.64068
C         75.35639       12.65147       -0.93326
C         75.20897       12.30022       -2.42902
O         74.86356       11.16715       -2.72900
C         75.14521       11.40234       -0.03802
C         73.77607       10.74848       -0.02491
C         72.63471       11.29495       -0.64852
C         73.65220        9.52610        0.65929
C         71.40660       10.62604       -0.58223
C         72.42664        8.85865        0.71420
C         71.30357        9.40880        0.09549
H         77.49340       12.55050       -0.90042
H         74.59513       13.41449       -0.66478
H         75.38252       11.66942        1.01493
H         75.89019       10.64223       -0.36528
H         72.67563       12.23522       -1.17907
H         74.51389        9.08319        1.14452
H         70.53194       11.05167       -1.05690
H         72.34928        7.91428        1.23770
H         70.35381        8.89166        0.14262
N         75.45983       13.19178       -3.43918
C         75.41872       12.86383       -4.86824
C         76.12583       11.56980       -5.25870
O         75.68029       10.90249       -6.18104
C         76.16520       14.04252       -5.50237
C         75.72324       15.18938       -4.62541
C         75.83723       14.57452       -3.23211
H         74.35724       12.83919       -5.20223
H         77.26089       13.91610       -5.34259
H         75.98405       14.17148       -6.59073
H         76.27805       16.14182       -4.75748
H         74.64726       15.37194       -4.85017
H         76.87979       14.60431       -2.85433
H         75.15137       15.11354       -2.54348
N         77.24515       11.16977       -4.59682
C         77.99825        9.95743       -4.90403
C         77.10597        8.73996       -4.74355
O         77.03884        7.93374       -5.66081
C         79.29162        9.79811       -4.05226
C         80.36529       10.88887       -4.31776
C         80.17266       12.17848       -3.57248
O         80.99475       13.22263       -3.79364
O         79.34435       12.25428       -2.69225
H         77.53677       11.75817       -3.82300
H         78.34328       10.00404       -5.96092
H         79.75072        8.84228       -4.38960
H         79.08452        9.68743       -2.96559
H         80.43026       11.07861       -5.40962
H         81.35427       10.51084       -3.97985
N         76.33603        8.58590       -3.62971
C         75.38389        7.50649       -3.45663
H         74.35443        7.92663       -3.45350
H         75.44608        6.75078       -4.26769
H         75.56474        7.00264       -2.48560
H         76.38084        9.29833       -2.88918
Ca        80.99712       15.10087       -2.50199
O         78.99993       16.06308       -4.48305
H         78.92700       15.12501       -4.17583
H         79.07269       15.99392       -5.46745
O         83.65572       17.16640       -2.03734
H         83.33985       18.00518       -1.61654
H         84.62005       17.12985       -1.82015
O         81.48023       14.56641       -6.15043
H         81.66618       13.59676       -6.22334
H         81.05301       14.79873       -7.01097
O         83.79974       13.75927       -3.79779
H         83.66280       12.97551       -3.20831
H         84.49474       13.46667       -4.43742

Ca 1.0



