%chk=apoCaM-CA-Ng.loop3.water5.frame343.chk
%nprocshared=20
%mem=10GB
%nosave
#b3lyp/svp scf=(tight,noincore,xqc) Test 
#IOP(5/87=12) Density=Current Pop=(MK,readradii) iop(6/33=2) iop(6/42=6)

apoCaM-CA-Ng.loop3.water5.frame343 

   0  1 
C         89.18492       75.33684       42.23466
C         89.63520       74.79677       40.91267
O         88.91004       74.02306       40.30518
H         88.18811       74.93302       42.50257
H         89.90865       75.03081       43.01989
H         89.13243       76.44400       42.19451
N         90.85403       75.15155       40.41740
C         91.43175       74.61391       39.19056
C         91.63232       73.11600       39.34550
O         91.13542       72.33041       38.54966
C         90.60390       75.00482       37.94488
C         90.48429       76.49792       37.81254
O         89.27047       77.08104       37.82187
O         91.48398       77.18817       37.68983
H         91.43025       75.81176       40.96237
H         92.44594       75.05600       39.06223
H         89.58867       74.55985       37.99390
H         91.10186       74.61162       37.03211
N         92.37704       72.66387       40.39324
C         92.65619       71.25254       40.65398
C         91.39932       70.44333       40.96982
O         91.48917       69.22322       40.97017
C         93.65239       71.14189       41.83226
C         95.04349       71.69055       41.44758
C         95.99564       71.83367       42.64617
C         95.63041       73.04122       43.53183
N         96.58427       73.20011       44.62891
H         92.78076       73.37348       41.02505
H         93.11648       70.81337       39.74036
H         93.78631       70.08337       42.14639
H         93.21507       71.69655       42.68936
H         94.98051       72.67953       40.94595
H         95.48224       70.97639       40.71691
H         97.01706       72.01707       42.24724
H         96.01744       70.89157       43.23607
H         94.60999       72.93224       43.95430
H         95.64851       73.96288       42.90641
H         97.55494       73.30761       44.25406
H         96.33891       74.05930       45.17276
H         96.53885       72.37131       45.26450
N         90.20679       71.03195       41.27435
C         88.99042       70.26980       41.54553
C         88.51902       69.57751       40.27716
O         88.41541       70.23668       39.25120
C         87.88226       71.19915       42.07229
C         86.68703       70.39876       42.50983
O         86.78777       69.49801       43.50242
O         85.61040       70.55857       41.96937
H         90.16478       72.05677       41.34898
H         89.19978       69.53425       42.35419
H         87.59623       71.93191       41.28602
H         88.25268       71.76407       42.95250
N         88.21105       68.24951       40.27281
C         87.84905       67.53681       39.05708
C         86.58707       68.02085       38.36072
O         86.40279       67.61563       37.22106
H         88.29036       67.71046       41.14812
H         87.73794       66.45028       39.26513
H         88.69653       67.65367       38.34716
N         85.66753       68.84891       38.94741
C         84.49758       69.36403       38.22696
C         84.44952       70.89469       38.19212
O         83.59223       71.42616       37.50155
C         83.20208       68.71207       38.76679
C         82.83736       69.06984       40.18507
N         82.37951       70.30323       40.49376
O         82.90473       68.21790       41.05805
H         85.78594       69.09820       39.93761
H         84.55805       69.04957       37.16242
H         83.34804       67.61064       38.70221
H         82.33779       68.96429       38.11455
H         82.26347       71.02766       39.77171
H         82.11142       70.52732       41.46059
N         85.33290       71.66741       38.89465
C         85.37200       73.12320       38.85305
C         85.06276       73.75082       40.20011
O         85.35042       74.92646       40.37530
H         86.03606       71.22437       39.49438
H         84.67477       73.55130       38.10187
H         86.40311       73.40903       38.55260
N         84.40569       73.05505       41.16957
C         84.02564       73.60711       42.46534
C         83.06689       72.64766       43.15048
O         83.46551       71.55438       43.52944
C         85.26649       73.86385       43.34822
C         84.90267       74.28439       44.75361
C         84.19270       75.47228       44.98935
C         85.26630       73.47432       45.84440
C         83.84835       75.84051       46.29425
C         84.92080       73.84360       47.14621
C         84.20831       75.02866       47.37557
O         83.86217       75.39365       48.62646
H         84.09278       72.10474       40.94446
H         83.48748       74.56391       42.28746
H         85.90792       74.64071       42.88804
H         85.85756       72.92574       43.39236
H         83.90278       76.11003       44.16442
H         85.81177       72.55138       45.68917
H         83.29698       76.75619       46.46467
H         85.20333       73.20537       47.97430
H         84.08615       74.85573       49.39950
N         81.75703       72.99052       43.27862
C         80.73924       72.11736       43.84115
C         79.88286       71.57287       42.71296
O         79.66261       70.36996       42.69407
C         79.90652       72.86056       44.92263
C         80.79489       73.44310       46.05626
C         78.81103       71.94837       45.51533
C         81.60090       72.40763       46.85055
H         81.44985       73.89922       42.90046
H         81.20141       71.23766       44.33534
H         79.39388       73.72123       44.43786
H         80.14563       73.99721       46.76868
H         81.50684       74.17610       45.62263
H         79.24553       71.04416       45.98848
H         78.21744       72.50288       46.27294
H         78.10833       71.60422       44.73196
H         82.32164       71.87880       46.19639
H         82.17907       72.92235       47.64475
H         80.93994       71.66893       47.34660
N         79.41973       72.36483       41.69723
C         78.61799       71.80529       40.61297
C         77.22223       71.44264       41.09422
O         76.54795       70.68782       40.40868
C         78.54291       72.75120       39.40848
O         77.89426       73.94277       39.76356
H         79.67513       73.36189       41.66933
H         79.13572       70.88413       40.25822
H         77.99362       72.23040       38.58827
H         79.57110       72.97949       39.05038
H         77.45355       74.28165       38.94158
N         76.73221       71.93928       42.27375
C         75.45026       71.59544       42.88162
C         75.39986       70.16052       43.40579
O         74.40465       69.80645       44.02256
C         74.28001       71.92205       41.94283
H         77.29573       72.62663       42.79353
H         75.33187       72.24377       43.77937
H         74.27971       71.28038       41.03962
H         73.31409       71.77057       42.46874
H         74.33899       72.98589       41.62641
N         76.43656       69.28735       43.23600
C         76.45547       67.93641       43.77579
C         76.53210       67.97098       45.28545
O         77.42627       68.61305       45.81922
C         77.67651       67.17381       43.24570
H         77.26291       69.57774       42.70657
H         75.55595       67.38222       43.42678
H         77.67746       66.13556       43.64189
H         77.63605       67.12452       42.13670
H         78.62179       67.67492       43.54685
N         75.64561       67.25783       46.03474
C         75.68012       67.16852       47.49051
C         75.42778       68.53390       48.10567
O         76.22357       69.00014       48.91079
C         77.00651       66.53459       47.99136
C         77.29790       65.17075       47.34820
C         78.60508       64.61699       47.84158
O         79.64500       65.22726       47.64640
O         78.63884       63.43690       48.48873
H         74.91272       66.71834       45.54917
H         74.84655       66.50295       47.80913
H         76.95238       66.40879       49.09575
H         77.85601       67.21533       47.77310
H         77.36432       65.27407       46.24391
H         76.47592       64.46326       47.58952
N         74.31886       69.23870       47.74732
C         73.99978       70.54930       48.27634
H         72.99788       70.51828       48.75237
H         74.73543       70.89274       49.03397
H         73.98310       71.28567       47.44589
H         73.67170       68.83662       47.05233
Ca        84.89556       68.39662       44.05085
O         84.32148       70.11879       46.54025
H         85.28251       69.88489       46.49572
H         83.86251       69.25854       46.71324
O         82.98740       65.87137       43.74205
H         82.19416       65.97480       44.32558
H         82.61630       65.81054       42.82616
O         81.84994       68.71911       44.25230
H         81.27632       68.37116       43.52439
H         81.25373       68.76002       45.04165
O         85.71374       66.63587       41.68370
H         85.65003       65.88826       42.32964
H         85.07552       66.39974       40.96479
O         85.79191       65.91513       45.49342
H         85.08859       66.34287       46.04426
H         86.53586       66.56894       45.48987

Ca 1.0



