%chk=apoCaM-CA-Ng.loop1.water5.frame528.chk
%nprocshared=20
%mem=10GB
%nosave
#b3lyp/svp scf=(tight,noincore,xqc) Test 
#IOP(5/87=12) Density=Current Pop=(MK,readradii) iop(6/33=2) iop(6/42=6)

apoCaM-CA-Ng.loop1.water5.frame528 

   0  1 
C         94.97839       10.34933       40.69608
C         95.48438       10.87067       39.38182
O         96.69037       10.91017       39.18930
H         93.86851       10.36776       40.74133
H         95.31776        9.30231       40.83799
H         95.37259       10.97767       41.52177
N         94.60578       11.29117       38.42677
C         94.96806       11.82982       37.11769
C         95.65247       10.78605       36.23972
O         96.06285        9.74242       36.72853
C         95.78172       13.13844       37.28119
C         96.00752       13.88877       35.99905
O         97.26041       14.16046       35.58725
O         95.05816       14.28947       35.34453
H         93.59722       11.23992       38.63924
H         94.00632       12.08232       36.61551
H         96.76543       12.91965       37.74584
H         95.22319       13.81664       37.96189
N         95.71522       10.97955       34.89127
C         96.26177       10.02680       33.93131
C         95.57308        8.68284       34.06248
O         96.23930        7.65882       34.12487
C         97.79777        9.91782       34.04175
C         98.46591       11.28225       33.84597
C         99.99264       11.17470       33.92729
C        100.68685       12.54595       33.85954
N        100.45851       13.23299       32.58678
H         95.28873       11.82988       34.49675
H         96.02766       10.41054       32.91259
H         98.16709        9.22219       33.25524
H         98.07964        9.50687       35.03549
H         98.11659       11.96682       34.64391
H         98.16514       11.68838       32.85708
H        100.36984       10.51902       33.11211
H        100.26358       10.71108       34.90109
H        101.77968       12.38543       33.98939
H        100.33346       13.18604       34.69860
H        100.77573       12.63368       31.79077
H         99.45018       13.47970       32.47143
H        101.00883       14.12190       32.58067
N         94.21253        8.63048       34.10762
C         93.45323        7.38881       34.19835
C         91.96215        7.75461       34.16765
O         91.54734        8.43417       35.09665
C         93.79002        6.60903       35.51420
C         93.28072        5.19665       35.47854
O         92.74216        4.73894       34.34185
O         93.40256        4.45933       36.44347
H         93.69908        9.52391       34.04351
H         93.76385        6.78122       33.32932
H         93.37513        7.15286       36.39044
H         94.88039        6.51673       35.67495
N         91.08403        7.45977       33.15798
C         91.32725        6.66444       31.96468
C         90.19744        5.66920       31.80340
O         89.48713        5.72315       30.81355
H         90.13800        7.86837       33.23673
H         92.29164        6.13041       31.98873
H         91.32621        7.34183       31.08289
N         89.94002        4.78362       32.80440
C         88.77478        3.90061       32.85529
C         88.60036        3.29395       34.24973
O         89.47594        3.40947       35.09121
C         88.68627        2.86765       31.69725
C         89.69027        1.74172       31.51725
O         89.47310        0.95220       30.61192
O         90.80021        1.53807       32.26055
H         90.53780        4.85717       33.62686
H         87.89433        4.57087       32.73834
H         88.65862        3.42089       30.73609
H         87.69520        2.37499       31.79350
N         87.41151        2.72503       34.60175
C         87.13099        2.30123       35.96786
C         87.03893        3.46083       36.96763
O         86.79713        3.18663       38.13373
H         86.67029        2.61742       33.89599
H         87.90457        1.57033       36.29022
H         86.14810        1.78162       35.98090
N         87.18086        4.77071       36.59358
C         87.02612        5.91749       37.49439
C         88.01730        5.91770       38.64311
O         89.19748        5.68938       38.41346
C         87.14761        7.26159       36.72223
C         88.54426        7.53095       36.13816
O         86.21023        7.29807       35.67792
H         87.35314        4.98337       35.60464
H         85.99480        5.89326       37.91125
H         86.94003        8.09906       37.43025
H         85.32118        7.44314       36.09482
H         88.84858        6.73791       35.42434
H         88.54231        8.50480       35.60689
H         89.30875        7.60840       36.93796
N         87.60088        6.21185       39.91186
C         88.51290        6.26894       41.05131
C         88.24927        5.07884       41.94444
O         88.13480        5.21977       43.15477
C         88.45108        7.64688       41.79629
C         87.02533        7.98377       42.32610
C         88.98314        8.76790       40.88607
C         86.99184        9.18598       43.27534
H         86.59695        6.37454       40.07874
H         89.56040        6.12209       40.70886
H         89.14161        7.57398       42.66664
H         86.62359        7.12756       42.90387
H         86.33201        8.17546       41.47979
H         88.32831        8.90241       39.99926
H         89.04902        9.73139       41.43127
H         90.00982        8.52407       40.54038
H         87.30755       10.12136       42.77282
H         85.95403        9.33608       43.64287
H         87.64728        8.99940       44.15296
N         88.15779        3.84142       41.37962
C         87.94113        2.62910       42.15137
C         86.67779        2.77276       42.97326
O         85.60368        2.93930       42.41185
C         87.85298        1.38283       41.23756
C         89.15636        1.14541       40.46141
O         87.58774        0.25334       42.02976
H         88.23567        3.77027       40.35643
H         88.81028        2.49435       42.83249
H         87.01682        1.54167       40.51448
H         87.14930       -0.41529       41.44104
H         89.99994        0.99305       41.16754
H         89.05317        0.24022       39.82741
H         89.40279        1.99362       39.79153
N         86.76678        2.76372       44.33141
C         85.63358        2.94343       45.22534
C         86.14269        3.06917       46.65200
O         85.88571        4.08857       47.27785
C         84.59647        1.78845       45.07789
C         83.40826        1.95702       46.03477
O         85.20847        0.54416       45.29925
H         87.70482        2.66249       44.74955
H         85.12258        3.89918       44.96508
H         84.19449        1.81443       44.04124
H         84.62995       -0.14572       44.88082
H         82.89986        2.92700       45.85171
H         82.67481        1.13887       45.87209
H         83.74059        1.91535       47.09363
N         86.84085        2.05290       47.23699
C         87.21060        2.04987       48.64065
C         88.67155        1.69309       48.85426
O         89.14116        0.69463       48.32541
C         86.30996        1.03591       49.36405
C         86.59079        1.00850       50.87269
C         85.57949        0.13019       51.61060
C         85.89110        0.00718       53.11141
N         85.87489        1.29974       53.80078
H         87.03583        1.19899       46.69540
H         86.99609        3.03565       49.11019
H         86.44111        0.01733       48.93584
H         85.25503        1.35081       49.20199
H         86.52424        2.04663       51.26116
H         87.61551        0.61647       51.05175
H         85.59808       -0.89127       51.17199
H         84.55912        0.55126       51.47362
H         86.88482       -0.47391       53.24919
H         85.12189       -0.65502       53.56557
H         86.66593        1.90181       53.47954
H         84.96396        1.78731       53.63995
H         85.99693        1.13691       54.82596
N         89.38863        2.38949       49.77932
C         90.68947        1.95726       50.27739
C         91.79822        2.15460       49.25210
O         92.41619        1.15810       48.90453
C         91.00694        2.62298       51.64125
C         89.97677        2.20408       52.71278
C         90.19799        2.92601       54.00822
O         90.09742        4.14194       54.05608
O         90.46930        2.23561       55.13162
H         88.92008        3.17567       50.25431
H         90.63078        0.86672       50.50545
H         91.01553        3.72544       51.55105
H         92.01433        2.30292       51.98839
H         90.04849        1.10602       52.87719
H         88.94315        2.43334       52.38412
N         92.16257        3.35607       48.71234
C         91.53495        4.63769       48.95844
H         90.65200        4.58267       49.61138
H         92.27577        5.32767       49.41423
H         91.19713        5.06450       47.99172
H         92.95854        3.36425       48.05531
Ca        91.82293        2.77414       33.81332
O         89.13598       -0.36861       33.84415
H         89.51785       -0.86548       33.07724
H         88.24384       -0.07437       33.53223
O         94.20530        0.89903       36.25499
H         94.11851       -0.04451       36.54245
H         95.13537        1.14411       36.48998
O         94.93413        2.39405       33.21973
H         94.40158        2.55479       32.40049
H         94.99273        1.40807       33.28749
O         92.82017       -0.59482       33.48903
H         93.72729       -0.90692       33.24396
H         92.26167       -0.81723       32.70234
O         91.19554       -0.30129       36.49464
H         91.69366       -0.90329       37.10263
H         90.62964       -0.91046       35.95819

Ca 1.0



