%chk=apoCaM-CA-Ng.loop2.water5.frame1487.chk
%nprocshared=20
%mem=10GB
%nosave
#b3lyp/svp scf=(tight,noincore,xqc) Test 
#IOP(5/87=12) Density=Current Pop=(MK,readradii) iop(6/33=2) iop(6/42=6)

apoCaM-CA-Ng.loop2.water5.frame1487 

   -2  1 
C         22.84066       91.32097       44.57673
C         24.04331       91.91529       43.89057
O         24.98635       92.22902       44.60232
H         22.02183       91.00482       43.91184
H         23.16597       90.41525       45.13205
H         22.43590       92.05496       45.30313
N         24.16499       92.08506       42.54096
C         23.17063       91.76551       41.52121
C         23.00623       92.91011       40.52062
O         21.88388       93.37416       40.36874
C         23.47435       90.39196       40.87006
C         24.93492       90.04818       40.72411
O         25.38372       89.08008       41.31810
O         25.76774       90.79385       39.98654
H         25.07922       92.42124       42.20251
H         22.15926       91.64326       41.95182
H         22.92688       90.29128       39.90769
H         23.05826       89.61838       41.55507
N         24.04939       93.41486       39.79875
C         23.89465       94.46254       38.78537
C         24.30650       93.99093       37.38954
O         24.11922       94.73872       36.43999
C         24.72958       95.67944       39.19371
H         24.99297       93.05436       39.97743
H         22.83148       94.77705       38.71570
H         24.40697       96.04223       40.19265
H         25.80651       95.40830       39.24630
H         24.60664       96.50603       38.46225
N         24.91140       92.78627       37.19801
C         25.40716       92.28603       35.92188
C         24.96107       90.84009       35.67901
O         24.53136       90.54147       34.57348
C         26.94130       92.45446       35.87099
C         27.65678       91.91994       37.07229
O         28.37589       92.74672       37.85523
O         27.58589       90.74192       37.35277
H         25.12734       92.22036       38.01916
H         25.03880       92.90047       35.06916
H         27.16338       93.54312       35.82244
H         27.34332       91.98706       34.94552
N         25.00795       89.89398       36.66593
C         24.61011       88.50925       36.49331
C         25.66508       87.64311       35.82862
O         25.40984       86.45329       35.70894
H         25.27510       90.15864       37.61794
H         23.63585       88.45508       35.95892
H         24.45251       88.06899       37.50242
N         26.85774       88.13841       35.37259
C         27.85731       87.31279       34.69371
C         29.27731       87.44561       35.27851
O         30.16389       86.76081       34.78578
C         27.84715       87.74463       33.21110
C         28.72233       86.90267       32.31989
N         28.47890       85.58140       32.15976
O         29.65361       87.42400       31.72508
H         27.03565       89.14915       35.42702
H         27.56714       86.24175       34.75411
H         28.16306       88.81068       33.15248
H         26.80821       87.67702       32.81998
H         27.68973       85.12720       32.64179
H         29.07666       85.01185       31.54320
N         29.59680       88.32942       36.26876
C         30.98491       88.57910       36.66675
C         31.13375       89.77840       37.60091
O         30.13365       90.31549       38.04445
H         28.84938       88.89007       36.67895
H         31.53986       88.83128       35.73916
H         31.43461       87.67033       37.12184
N         32.34286       90.32502       37.92593
C         33.63747       89.81375       37.48561
C         34.09174       88.63450       38.33872
O         35.10886       88.04092       38.00828
C         34.71999       90.92617       37.56559
C         34.38561       92.12955       36.67475
O         34.86524       91.35589       38.89631
H         32.32839       91.18300       38.50041
H         33.56671       89.50616       36.42076
H         35.68140       90.49124       37.20157
H         35.78324       91.72299       38.98647
H         34.28765       91.81131       35.61580
H         33.44165       92.61872       36.99410
H         35.20165       92.88080       36.74131
N         33.43151       88.28312       39.48234
C         33.87982       87.24799       40.40614
C         32.78028       86.20083       40.53836
O         31.65530       86.58693       40.81936
C         34.17624       87.88366       41.79943
C         35.22303       89.02905       41.73835
C         34.60445       86.81930       42.82992
C         36.61380       88.62476       41.23497
H         32.58744       88.80379       39.76074
H         34.82114       86.79019       40.05933
H         33.23419       88.34038       42.17859
H         35.33706       89.45741       42.75826
H         34.83909       89.84035       41.08635
H         33.81146       86.05445       42.96087
H         35.53364       86.30036       42.51956
H         34.77420       87.29216       43.81937
H         36.57327       88.25442       40.19226
H         37.27898       89.51358       41.25120
H         37.06995       87.84893       41.88210
N         32.99423       84.85628       40.44156
C         34.28721       84.23010       40.19991
C         34.23817       82.77004       40.59974
O         33.41985       82.03765       40.05953
C         34.68004       84.32718       38.70746
C         36.02466       83.69357       38.46026
O         36.12413       82.73312       37.71321
O         37.12214       84.17347       39.07632
H         32.18592       84.24432       40.63910
H         35.05870       84.72094       40.82745
H         34.72879       85.37851       38.36775
H         33.90679       83.81693       38.09073
N         35.12326       82.27313       41.51537
C         35.23461       80.84753       41.80906
C         36.25888       80.59963       42.91247
O         37.36789       81.10418       42.79115
C         35.66319       80.07924       40.53130
C         35.64175       78.58916       40.75322
C         34.53777       77.83522       40.32064
C         36.70106       77.94229       41.41212
C         34.48966       76.45989       40.55542
C         36.65149       76.56554       41.63972
C         35.54526       75.82526       41.21485
H         35.76826       82.92987       41.98239
H         34.23675       80.47561       42.11246
H         36.65637       80.40788       40.15400
H         34.94973       80.29889       39.71529
H         33.70582       78.31522       39.81923
H         37.56426       78.50152       41.74931
H         33.63049       75.88849       40.23003
H         37.46966       76.07446       42.14940
H         35.50529       74.76010       41.39718
N         36.01641       79.76860       43.97638
C         34.79764       79.00694       44.20206
C         33.66873       79.90559       44.66758
O         32.57920       79.79719       44.12197
C         35.23899       77.92869       45.19926
C         36.30478       78.61579       46.01994
C         37.03602       79.44304       44.96029
H         34.46229       78.44997       43.29970
H         34.42090       77.42774       45.75876
H         35.77658       77.14586       44.61372
H         35.79000       79.28409       46.73482
H         36.96212       77.94389       46.61172
H         37.49062       80.34049       45.43345
H         37.82086       78.84209       44.45042
N         33.86778       80.87041       45.60678
C         32.83466       81.82681       45.97008
C         31.93486       81.21186       47.03505
O         32.43912       80.97522       48.12433
C         33.48871       83.12915       46.48548
C         34.35884       83.78168       45.39190
C         35.05592       85.00504       45.90724
O         36.27553       85.06402       45.89848
O         34.34239       86.04826       46.37052
H         34.81325       81.01080       45.98416
H         32.29372       82.13098       45.05789
H         34.11986       82.90167       47.37387
H         32.69623       83.84718       46.79173
H         33.72117       84.06207       44.52644
H         35.12829       83.06541       45.03035
N         30.61537       80.89758       46.85776
C         29.84515       81.01567       45.63408
H         28.98393       81.69380       45.80333
H         30.40993       81.38467       44.76567
H         29.45578       80.01175       45.36116
H         30.10636       80.50589       47.66592
Ca        27.95676       90.26679       40.06516
O         30.25707       92.14738       40.67030
H         31.06257       91.75571       41.09129
H         30.05116       92.94357       41.22131
O         27.31589       87.63310       38.67631
H         26.55632       87.03694       38.89433
H         28.12240       87.08918       38.86047
O         27.39030       93.17307       40.94054
H         27.56013       93.99093       40.41031
H         27.37834       93.48158       41.88084
O         29.36037       88.17601       41.63608
H         29.90781       88.58167       40.91711
H         29.71097       88.57937       42.46915
O         27.60335       90.85500       43.01536
H         27.32869       89.95646       43.32698
H         28.57779       90.89228       43.18687

Ca 1.0



