%chk=apoCaM-CA-Ng.loop2.water3.frame296.chk
%nprocshared=20
%mem=10GB
%nosave
#b3lyp/svp scf=(tight,noincore,xqc) Test 
#IOP(5/87=12) Density=Current Pop=(MK,readradii) iop(6/33=2) iop(6/42=6)

apoCaM-CA-Ng.loop2.water3.frame296 

   -2  1 
C         49.85291       49.50176       35.13533
C         48.78709       50.51855       35.42213
O         48.85549       51.19178       36.43943
H         50.61916       49.49155       35.93924
H         49.39709       48.49222       35.06012
H         50.35013       49.74710       34.17271
N         47.77141       50.69779       34.53582
C         46.70709       51.67836       34.71916
C         45.82764       51.30832       35.90488
O         45.30843       50.19999       35.93113
C         45.85500       51.76011       33.43447
C         44.82942       52.85726       33.51269
O         45.22035       54.13463       33.68780
O         43.64173       52.59931       33.40368
H         47.78049       50.12839       33.67415
H         47.16878       52.68027       34.86643
H         45.36040       50.78155       33.24275
H         46.51943       51.98444       32.57166
N         45.56735       52.21283       36.89608
C         44.64895       51.91979       37.99644
C         45.19199       50.88269       38.97132
O         44.42486       50.41798       39.80303
C         44.27891       53.20088       38.74846
H         45.97019       53.15916       36.81687
H         43.70944       51.52319       37.54873
H         43.52704       52.98428       39.53760
H         45.17823       53.65429       39.21582
H         43.83195       53.93168       38.04020
N         46.49285       50.46618       38.93023
C         47.04605       49.38185       39.73649
C         46.92274       49.70804       41.22388
O         46.36607       48.91260       41.96907
C         46.31536       48.07086       39.32221
C         47.00981       46.75176       39.53705
O         48.28984       46.65470       39.93316
O         46.42660       45.73274       39.20452
H         47.13731       50.90956       38.26408
H         48.12241       49.29879       39.46469
H         46.15843       48.10485       38.22198
H         45.31018       48.04390       39.79415
N         47.38750       50.89579       41.71912
C         47.12710       51.33059       43.08666
C         48.28536       51.11337       44.03638
O         48.09401       51.37097       45.21687
H         47.84267       51.56622       41.08073
H         46.24913       50.78426       43.49635
H         46.83674       52.40454       43.08453
N         49.49632       50.62990       43.62572
C         50.58646       50.32281       44.54885
C         51.81050       51.18112       44.25695
O         52.32683       51.15356       43.14866
C         50.92460       48.82689       44.44908
C         52.01294       48.44347       45.42257
N         53.17710       47.91652       44.98188
O         51.84200       48.61495       46.62047
H         49.65167       50.44089       42.62489
H         50.26560       50.50918       45.59803
H         51.22996       48.58750       43.40669
H         50.01568       48.23102       44.68413
H         53.33208       47.75506       43.97920
H         53.92528       47.66617       45.64427
N         52.32692       51.96948       45.24088
C         53.47198       52.85027       45.08106
C         54.79212       52.12521       44.92167
O         55.12279       51.32012       45.78071
H         51.85963       51.97984       46.16097
H         53.57601       53.43684       46.02077
H         53.28770       53.57285       44.25940
N         55.64413       52.43855       43.89738
C         57.05286       52.02003       43.89099
C         57.32849       50.78202       43.05604
O         58.38764       50.19388       43.24250
C         58.00260       53.19217       43.50818
C         57.81199       53.72105       42.07224
O         57.89495       54.24380       44.43526
H         55.32979       53.13507       43.20819
H         57.32665       51.72677       44.92860
H         59.04656       52.81352       43.56852
H         56.99976       54.65815       44.32660
H         57.94987       52.90758       41.33027
H         56.80876       54.17054       41.92505
H         58.56381       54.51186       41.86345
N         56.46326       50.32919       42.11262
C         56.67220       49.09330       41.35574
C         55.44360       48.22075       41.42645
O         54.43715       48.63345       41.99137
C         57.06754       49.37789       39.87206
C         56.21246       50.50455       39.24339
C         58.57512       49.66221       39.78930
C         56.40845       50.63973       37.73378
H         55.61640       50.88581       41.91245
H         57.47315       48.47303       41.81799
H         56.91805       48.45511       39.27457
H         56.45890       51.47478       39.72805
H         55.13604       50.28919       39.41578
H         59.13484       48.79610       40.20914
H         58.90937       49.76236       38.73816
H         58.84663       50.57292       40.35912
H         56.10960       49.69656       37.22885
H         55.76889       51.46353       37.35387
H         57.45841       50.87971       37.47429
N         55.45343       46.98979       40.84091
C         54.30024       46.11526       40.82955
C         54.72422       44.68791       41.18013
O         54.26520       43.74526       40.55386
C         53.67071       46.23831       39.42884
C         52.32209       45.61172       39.32993
O         51.75190       45.04766       40.41189
O         51.71941       45.64936       38.26935
H         56.29382       46.67406       40.33105
H         53.56215       46.46596       41.58476
H         54.35852       45.80373       38.67277
H         53.53493       47.31555       39.18743
N         55.66779       44.46977       42.14017
C         56.20294       43.15015       42.48148
C         56.76881       42.44945       41.24775
O         57.53025       43.08432       40.52942
C         57.29533       43.31840       43.57025
C         57.95302       42.02137       43.99057
C         57.60600       41.41064       45.20717
C         58.93714       41.42022       43.18181
C         58.21552       40.21321       45.59586
C         59.55142       40.22954       43.57952
C         59.18689       39.62324       44.78309
H         56.05418       45.29282       42.62781
H         55.38224       42.55117       42.92060
H         56.79491       43.77941       44.45014
H         58.09016       44.02642       43.24556
H         56.85535       41.85363       45.84904
H         59.24063       41.87567       42.24842
H         57.93508       39.74265       46.52891
H         60.30863       39.77594       42.95254
H         59.65934       38.69813       45.08697
N         56.50300       41.13019       40.95113
C         57.15082       40.42414       39.85115
C         56.65471       40.82773       38.47436
O         57.24234       40.39992       37.49083
C         56.80806       38.94619       40.09750
C         56.59357       38.90907       41.59887
C         55.80462       40.19383       41.80960
H         58.24700       40.58808       39.96338
H         55.81498       38.71450       39.64640
H         57.55122       38.22422       39.69565
H         56.08777       37.99297       41.97137
H         57.57888       39.00918       42.10106
H         54.77156       40.05945       41.41439
H         55.77557       40.45478       42.88454
N         55.51869       41.56952       38.32893
C         54.94658       41.91007       37.03405
C         55.88637       42.82897       36.28120
O         56.30058       42.49024       35.18109
C         53.57424       42.61216       37.18662
C         52.48305       41.75513       37.86356
C         51.20706       42.55484       37.96630
O         50.70668       42.88231       39.17699
O         50.66667       42.97826       36.95663
H         55.01338       41.86272       39.17172
H         54.78028       40.97676       36.44926
H         53.21488       42.88688       36.16984
H         53.70289       43.54569       37.77263
H         52.80528       41.46737       38.88636
H         52.30160       40.82770       37.27915
N         56.25516       44.02472       36.81852
C         57.10517       44.96039       36.11782
H         58.08825       44.49462       35.89742
H         56.61775       45.27243       35.16938
H         57.26683       45.86374       36.74443
H         55.91626       44.28598       37.75579
Ca        49.27459       44.65455       39.42161
O         47.84443       43.60744       41.72028
H         47.96621       42.67729       41.40299
H         48.35200       43.65045       42.56905
O         47.41576       42.62675       38.20168
H         47.20039       42.65074       37.23569
H         47.81854       41.73383       38.34593
O         48.46197       45.42597       36.47177
H         48.26398       46.39035       36.57790
H         48.04686       45.17969       35.60728

Ca 1.0



