%chk=apoCaM-CA-Ng.loop1.water3.frame1387.chk
%nprocshared=20
%mem=10GB
%nosave
#b3lyp/svp scf=(tight,noincore,xqc) Test 
#IOP(5/87=12) Density=Current Pop=(MK,readradii) iop(6/33=2) iop(6/42=6)

apoCaM-CA-Ng.loop1.water3.frame1387 

   0  1 
C         27.89302       82.50220       61.48935
C         26.62483       82.00195       60.85910
O         26.49491       80.79854       60.68503
H         28.76090       82.26961       60.83659
H         27.85866       83.59904       61.65765
H         28.03400       82.00218       62.47060
N         25.65417       82.87572       60.46154
C         24.39305       82.45508       59.85637
C         24.45808       82.58739       58.34812
O         23.66667       83.29960       57.74546
C         23.17786       83.17900       60.49050
C         23.15667       84.67842       60.29718
O         24.09220       85.46275       60.86468
O         22.25755       85.19645       59.65378
H         25.85010       83.88114       60.55026
H         24.23459       81.37132       60.03902
H         23.13626       82.96071       61.57801
H         22.26011       82.75087       60.02737
N         25.38526       81.86188       57.66664
C         25.48636       81.85216       56.21527
C         24.19784       81.31238       55.59834
O         23.63616       82.03847       54.78960
C         26.77746       81.13771       55.74130
C         28.00995       81.90130       56.28303
C         29.35469       81.29715       55.87116
C         30.49678       82.09531       56.52889
N         31.80524       81.53372       56.20178
H         26.03394       81.27379       58.20807
H         25.60560       82.90350       55.86304
H         26.81472       81.15331       54.62936
H         26.80158       80.08039       56.07521
H         27.97875       81.91330       57.39171
H         27.97279       82.95465       55.92464
H         29.46020       81.32432       54.76446
H         29.40311       80.24140       56.21425
H         30.36711       82.07917       57.63494
H         30.45770       83.15611       56.19269
H         31.86148       80.54204       56.52879
H         31.97003       81.58124       55.17067
H         32.54394       82.09074       56.69035
N         23.57769       80.13670       55.93578
C         24.02079       79.13037       56.90451
C         23.14817       79.13751       58.14951
O         22.13829       79.82511       58.18318
C         24.09573       77.73612       56.22876
C         22.98097       77.44920       55.23465
O         21.67933       77.22746       55.54757
O         23.28219       77.44066       54.05149
H         22.66355       79.96733       55.48741
H         25.02886       79.37526       57.28454
H         24.22216       76.91445       56.96262
H         25.03145       77.76338       55.62469
N         23.56701       78.47923       59.27480
C         22.87939       78.59507       60.55699
C         21.56529       77.86762       60.57656
O         21.29681       77.12805       59.65504
H         24.45806       77.95992       59.24754
H         22.72844       79.67036       60.78467
H         23.50494       78.15490       61.36342
N         20.68407       78.02632       61.60174
C         19.40822       77.31012       61.67764
C         19.28138       76.58171       63.01512
O         20.05387       76.87870       63.91699
C         18.25673       78.32058       61.48189
C         18.25785       78.88221       60.08745
O         18.10056       78.14190       59.12853
O         18.40638       80.20504       59.88951
H         20.91433       78.70597       62.34367
H         19.35164       76.54992       60.87702
H         18.35412       79.13938       62.22659
H         17.26653       77.86204       61.63602
N         18.34485       75.61236       63.25994
C         17.44171       75.04729       62.26513
C         18.18892       74.23712       61.23486
O         19.31158       73.83249       61.49476
H         18.29334       75.21777       64.21201
H         16.82532       75.82628       61.79176
H         16.72862       74.35148       62.75850
N         17.59741       73.91179       60.05072
C         18.25068       73.05899       59.05763
C         19.50873       73.72417       58.38496
O         19.82296       74.96842       58.95849
C         17.23893       72.57707       57.98800
C         16.13770       71.70460       58.60849
O         17.90806       71.81483       57.01505
H         16.63506       74.24200       59.88189
H         18.58127       72.13836       59.59233
H         16.77453       73.47557       57.52041
H         17.33324       71.81118       56.20474
H         15.56706       72.25295       59.38480
H         15.42548       71.38155       57.81999
H         16.58542       70.79643       59.06742
N         20.63412       72.76644       58.48919
C         21.97590       73.10673       57.96771
C         21.94021       73.50101       56.50376
O         21.27949       74.46131       56.16932
C         22.72636       74.17879       58.81556
C         22.60376       73.96441       60.34550
C         24.20965       74.25162       58.40299
C         23.06626       72.60001       60.85790
H         20.33985       71.88036       58.01536
H         22.58243       72.17895       58.06538
H         22.29327       75.17153       58.60398
H         21.54819       74.08971       60.63699
H         23.17358       74.76215       60.87097
H         24.73394       75.04105       58.98242
H         24.72186       73.28222       58.57584
H         24.30812       74.50046       57.32753
H         22.46228       71.78573       60.40692
H         24.13963       72.43155       60.64261
H         22.92063       72.55978       61.95829
N         22.65399       72.82399       55.56800
C         22.71399       73.27489       54.17845
C         21.99645       72.32899       53.24814
O         21.96362       72.62858       52.06049
C         24.17289       73.54901       53.75496
C         25.04494       72.29404       53.70934
O         24.74808       74.47280       54.64566
H         23.17865       71.98419       55.84837
H         22.18063       74.24462       54.05884
H         24.15571       73.96820       52.71826
H         24.90692       75.31644       54.14856
H         25.12472       71.82269       54.70934
H         24.62791       71.55892       52.98943
H         26.06596       72.57123       53.37354
N         21.35764       71.20607       53.69260
C         20.54105       70.37486       52.81600
C         19.37400       71.22917       52.34367
O         18.45939       71.48439       53.11585
C         20.09168       69.07702       53.53440
C         21.31848       68.20669       53.86941
O         19.39098       69.40037       54.71127
H         21.41343       70.95495       54.69056
H         21.16094       70.07535       51.94053
H         19.42634       68.50379       52.85051
H         19.12491       68.54729       55.14338
H         22.01948       68.73641       54.54866
H         21.00154       67.26722       54.36807
H         21.86338       67.93917       52.93928
N         19.47113       71.87053       51.14313
C         18.61131       72.96066       50.68904
C         18.62702       74.14770       51.66022
O         19.11767       74.04151       52.77385
C         17.16551       72.49478       50.41483
C         17.09931       71.36397       49.37552
C         15.64192       70.93629       49.13436
C         15.50607       69.72812       48.19105
N         15.92965       70.02672       46.82210
H         20.27409       71.64772       50.53475
H         19.03891       73.32824       49.72863
H         16.57489       73.35517       50.02950
H         16.69597       72.15504       51.36215
H         17.67275       70.48946       49.75159
H         17.55788       71.71498       48.42656
H         15.05182       71.79070       48.73517
H         15.20354       70.63991       50.11210
H         14.43521       69.42632       48.17047
H         16.09273       68.87179       48.59136
H         15.35940       70.81267       46.43351
H         16.94479       70.26808       46.78783
H         15.77522       69.17809       46.23051
N         18.10327       75.33756       51.26067
C         17.95322       76.51668       52.11608
C         19.24190       76.97020       52.80292
O         19.19344       77.13479       54.01315
C         17.33239       77.69275       51.33479
C         15.90368       77.37607       50.85774
C         15.33619       78.52066       50.07446
O         15.86872       78.87630       49.03492
O         14.22509       79.14821       50.50304
H         17.78187       75.39692       50.28439
H         17.22773       76.27050       52.92310
H         17.97972       77.95533       50.47235
H         17.27275       78.57963       52.00573
H         15.26191       77.17579       51.74409
H         15.88057       76.47853       50.20786
N         20.42320       77.23778       52.17859
C         20.71850       77.06472       50.77637
H         21.56268       76.34840       50.68180
H         19.87009       76.67470       50.19397
H         21.02908       78.03940       50.34847
H         21.19956       77.57917       52.76128
Ca        20.42731       76.52638       57.32551
O         16.86107       77.50048       56.29839
H         16.47763       78.37909       56.05182
H         16.26121       76.83941       55.86984
O         18.36404       74.96998       55.64624
H         17.91659       75.17521       54.79272
H         18.11006       74.03250       55.80011
O         19.71633       79.82504       56.51012
H         20.26331       80.65040       56.49897
H         19.00290       80.01257       57.16985

Ca 1.0



