%chk=apoCaM-CA-Ng.loop2.water4.frame1284.chk
%nprocshared=20
%mem=10GB
%nosave
#b3lyp/svp scf=(tight,noincore,xqc) Test 
#IOP(5/87=12) Density=Current Pop=(MK,readradii) iop(6/33=2) iop(6/42=6)

apoCaM-CA-Ng.loop2.water4.frame1284 

   -2  1 
C         67.10427       55.57968       10.10803
C         66.70102       56.97115       10.50795
O         66.50941       57.79065        9.62090
H         68.10176       55.34734       10.53501
H         66.36668       54.82790       10.43461
H         67.17788       55.50649        9.00172
N         66.59113       57.37206       11.80689
C         66.77664       56.52636       12.98348
C         67.07345       57.40057       14.19505
O         66.27025       57.49304       15.11391
C         65.58064       55.56123       13.21416
C         64.22117       56.19978       13.33873
O         63.14995       55.41717       13.56996
O         64.06729       57.40385       13.22153
H         66.39768       58.37116       11.96459
H         67.68426       55.89697       12.85973
H         65.78314       54.98076       14.14063
H         65.51607       54.82964       12.39185
N         68.27769       58.03682       14.26890
C         68.67851       58.84917       15.41140
C         68.03127       60.22432       15.41256
O         68.27705       60.96432       16.35621
C         70.20281       59.02254       15.41833
H         68.96223       57.86693       13.51513
H         68.41162       58.30812       16.34701
H         70.69423       58.02720       15.45448
H         70.54091       59.56030       14.50673
H         70.52583       59.59563       16.31452
N         67.22893       60.66124       14.39463
C         66.67215       62.01055       14.37535
C         65.92564       62.35070       15.70402
O         64.82515       61.55976       16.08423
C         65.89494       62.38475       13.05598
C         65.56064       61.29456       12.03906
O         64.81280       60.22319       12.36281
O         65.97688       61.39076       10.89546
H         67.04954       60.03487       13.60349
H         67.54328       62.70456       14.40010
H         66.53491       63.11137       12.50422
H         64.97902       62.95538       13.31399
N         65.72500       63.79925       15.87858
C         64.53173       64.18752       16.64454
C         63.43161       64.51182       15.67574
O         63.62133       65.42541       14.88512
H         66.57750       64.14742       16.37446
H         64.74546       65.11754       17.21728
H         64.24607       63.42348       17.40034
N         62.24943       63.83151       15.67579
C         61.17388       64.15273       14.73503
C         59.88928       63.41611       15.06904
O         59.93604       62.27005       15.49693
C         61.56894       63.88364       13.26138
C         61.70894       62.41829       12.94963
N         60.95664       61.83486       11.98809
O         62.50892       61.74981       13.57440
H         62.11021       63.09403       16.38375
H         60.96968       65.24190       14.83428
H         62.52233       64.38945       13.01052
H         60.78943       64.32211       12.60349
H         60.27598       62.38324       11.44326
H         61.05914       60.82987       11.78248
N         58.68859       64.01888       14.85564
C         57.43597       63.35806       15.18871
C         56.20733       64.19667       14.86701
O         56.34180       65.26514       14.28785
H         58.68718       64.97178       14.46355
H         57.45086       63.15723       16.28178
H         57.36165       62.39510       14.63714
N         54.94960       63.81397       15.23993
C         54.64169       62.60217       15.98953
C         53.53911       61.81529       15.30368
O         52.43672       62.32887       15.16817
C         54.21066       62.99071       17.42172
C         53.91633       61.76137       18.28827
O         55.24502       63.72675       18.02741
H         54.16973       64.45904       15.03514
H         55.53721       61.95639       16.08639
H         53.27977       63.60620       17.35673
H         54.84679       64.55714       18.39820
H         53.08963       61.15959       17.85652
H         54.82152       61.12222       18.37029
H         53.61273       62.08422       19.30595
N         53.76086       60.53321       14.89837
C         52.71471       59.64631       14.39685
C         52.69440       58.41103       15.29434
O         53.74270       57.79203       15.42262
C         52.98116       59.23023       12.91951
C         53.10075       60.48469       12.01604
C         51.84394       58.30449       12.43044
C         53.34602       60.16303       10.53916
H         54.71317       60.14618       14.99022
H         51.73494       60.16066       14.39765
H         53.93968       58.66686       12.86591
H         53.95918       61.09608       12.36850
H         52.17892       61.10151       12.09386
H         52.03928       57.91836       11.41129
H         51.75429       57.41224       13.07932
H         50.87167       58.84271       12.43406
H         54.25324       59.53376       10.42238
H         52.47442       59.64354       10.09060
H         53.48844       61.10765        9.97420
N         51.58032       57.91872       15.91316
C         50.23184       58.47559       15.82217
C         49.19610       57.43567       16.22782
O         49.42618       56.69398       17.17262
C         50.05789       59.75204       16.67570
C         50.20646       59.50450       18.15189
O         51.26517       59.10681       18.60995
O         49.16585       59.72859       18.97767
H         51.70685       57.03243       16.42702
H         50.02414       58.72949       14.76186
H         49.03639       60.15148       16.48554
H         50.77984       60.53546       16.37713
N         48.02034       57.33335       15.54304
C         46.99732       56.34494       15.87261
C         45.83282       56.44779       14.88962
O         45.29038       57.53597       14.75809
C         46.41637       56.56243       17.29628
C         45.46038       55.44023       17.63523
C         44.07296       55.61275       17.49185
C         45.95745       54.19294       18.05317
C         43.20047       54.55079       17.75000
C         45.08010       53.13826       18.32411
C         43.70312       53.31551       18.16744
H         47.85870       57.97673       14.75295
H         47.47352       55.34624       15.82891
H         45.89404       57.54417       17.32325
H         47.18984       56.60414       18.08966
H         43.66945       56.55881       17.15408
H         47.02346       54.03841       18.16652
H         42.13438       54.68319       17.61923
H         45.46810       52.18083       18.64748
H         43.02600       52.49462       18.36573
N         45.32089       55.36318       14.22674
C         45.76393       53.98662       14.36596
C         46.89832       53.63018       13.40990
O         47.27547       52.46864       13.38397
C         44.48628       53.20501       14.04861
C         43.89188       54.03040       12.92506
C         44.09602       55.44755       13.45114
H         46.05860       53.72140       15.39990
H         44.63054       52.12491       13.83631
H         43.79975       53.29580       14.92369
H         44.53390       53.88368       12.02833
H         42.84097       53.79045       12.65793
H         44.15099       56.17813       12.61592
H         43.27222       55.72650       14.14621
N         47.49739       54.56378       12.61002
C         48.58890       54.25359       11.68872
C         48.21251       54.66586       10.27115
O         47.49579       55.64367       10.11320
C         49.86283       55.00718       12.12827
C         50.36572       54.58134       13.52349
C         50.88910       53.16712       13.60123
O         50.94063       52.44666       12.61645
O         51.34016       52.69972       14.78011
H         47.19355       55.54582       12.66144
H         48.80052       53.16919       11.69258
H         49.63380       56.09532       12.15157
H         50.68314       54.85299       11.39388
H         49.54987       54.71257       14.26512
H         51.20072       55.24901       13.81853
N         48.67766       54.01323        9.16582
C         49.55904       52.86575        9.21174
H         50.50610       53.12754        9.72766
H         49.06450       52.01841        9.73041
H         49.80675       52.54026        8.17873
H         48.39815       54.36065        8.23490
Ca        64.32256       60.08335       14.49786
O         61.29735       58.65488       13.92660
H         60.42617       59.04410       14.19066
H         61.07962       57.73577       13.62903
O         62.89645       57.35284       16.32326
H         63.58358       56.70037       16.61020
H         62.16170       57.24534       16.97827
O         62.26866       60.27376       17.07154
H         62.58187       60.71322       17.90158
H         61.30855       60.50607       17.01505
O         65.28861       59.17616       17.60675
H         65.11286       59.96380       18.18052
H         65.00824       58.40306       18.15685

Ca 1.0



