%chk=apoCaM-CA-Ng.loop4.water3.frame112.chk
%nprocshared=20
%mem=10GB
%nosave
#b3lyp/svp scf=(tight,noincore,xqc) Test 
#IOP(5/87=12) Density=Current Pop=(MK,readradii) iop(6/33=2) iop(6/42=6)

apoCaM-CA-Ng.loop4.water3.frame112 

   -3  1 
C         26.39447       71.93226       90.26652
C         25.19937       72.81152       90.47924
O         24.78439       72.94345       91.61435
H         27.24793       72.33195       90.85652
H         26.16761       70.90374       90.61666
H         26.69003       71.89545       89.19836
N         24.61378       73.47185       89.43969
C         23.50367       74.41203       89.57426
C         23.88994       75.59692       90.43770
O         23.28385       75.83067       91.46555
C         22.12953       73.73605       89.84480
C         21.88176       72.78843       91.00092
O         21.80213       73.18763       92.28670
O         21.54433       71.64388       90.74128
H         25.01357       73.34952       88.49713
H         23.33395       74.87221       88.57337
H         21.92448       73.14264       88.92479
H         21.35065       74.52884       89.88187
N         24.89801       76.40973       89.99563
C         25.42762       77.63676       90.59879
C         24.42032       78.78339       90.60327
O         24.65080       79.73752       89.87143
C         26.10827       77.40839       91.97372
C         26.79512       78.69984       92.51364
C         27.12700       76.25736       91.87940
C         27.94846       79.24340       91.65474
H         25.35019       76.13376       89.10916
H         26.24051       77.95581       89.90919
H         25.33187       77.11868       92.71380
H         27.19665       78.49182       93.52909
H         26.03843       79.50554       92.62017
H         27.89318       76.45617       91.10207
H         27.64339       76.11769       92.84604
H         26.61901       75.30527       91.62225
H         28.35802       80.16129       92.12475
H         28.77411       78.50650       91.57905
H         27.61136       79.52306       90.63704
N         23.29646       78.79063       91.38057
C         22.34427       79.89002       91.33404
C         22.92434       81.14386       91.99311
O         23.02757       82.13800       91.28857
C         20.94064       79.48584       91.86124
C         20.34899       78.35391       91.06569
O         20.00070       77.20801       91.68049
O         20.16222       78.47235       89.86560
H         23.08991       78.00634       92.00504
H         22.15143       80.13145       90.26234
H         20.25924       80.36010       91.77721
H         20.93794       79.15990       92.90773
N         23.32199       81.24028       93.30196
C         23.27010       80.15803       94.27751
C         23.50158       80.61929       95.71167
O         23.93991       81.74401       95.90424
H         23.65054       82.16780       93.61010
H         23.98090       79.34924       94.00150
H         22.27301       79.77790       94.26958
N         23.24125       79.83582       96.80925
C         22.64548       78.49970       96.83606
C         23.47378       77.53311       96.00683
O         22.97304       77.00769       95.02301
C         21.12974       78.56447       96.50011
C         20.41575       77.27393       96.78893
O         19.76591       76.72399       95.91618
O         20.44240       76.74629       98.02734
H         23.47411       80.23314       97.73170
H         22.66162       78.14230       97.88837
H         20.91912       78.84507       95.45774
H         20.66886       79.33880       97.14928
N         24.77739       77.25820       96.30616
C         25.49089       77.74590       97.47382
C         26.23069       79.01487       97.17154
O         26.15979       79.50903       96.05473
H         25.31029       76.66151       95.66667
H         26.20478       76.96438       97.81276
H         24.80141       77.92839       98.32070
N         26.96938       79.61078       98.14664
C         27.62124       80.89715       97.95842
C         29.11469       80.68761       97.86251
O         29.88326       81.29336       98.59384
C         27.17597       81.87185       99.07162
C         25.65128       82.09636       99.02403
C         25.12736       83.01891      100.09522
N         23.80310       83.29549      100.14636
O         25.88124       83.51533      100.91955
H         27.06448       79.14087       99.06095
H         27.33218       81.34889       96.98370
H         27.68727       82.84982       98.93557
H         27.46010       81.45449      100.06305
H         25.13178       81.12330       99.14617
H         25.38427       82.52552       98.03491
H         23.15403       82.88465       99.45830
H         23.42318       83.92025      100.87279
N         29.58287       79.84279       96.90085
C         30.99999       79.64428       96.60639
C         31.80382       79.10104       97.77816
O         33.02575       79.18742       97.70690
C         31.20171       78.75526       95.34103
C         30.63331       79.44234       94.08968
C         30.58913       77.34703       95.49539
H         28.88368       79.37506       96.31075
H         31.42010       80.65163       96.38825
H         32.29458       78.63565       95.17118
H         30.83291       78.82539       93.18817
H         29.53856       79.59681       94.17001
H         31.11843       80.43086       93.94398
H         29.48658       77.38160       95.61647
H         30.80155       76.73834       94.59090
H         31.02062       76.82244       96.37262
N         31.22993       78.52928       98.87403
C         31.99766       78.11497      100.04203
C         32.03881       76.60777      100.18187
O         33.12332       76.06662      100.30737
C         31.42165       78.74306      101.32437
C         31.42900       80.24978      101.28138
N         30.28242       80.94988      101.44380
O         32.48337       80.84534      101.11417
H         30.20678       78.38901       98.89308
H         33.05622       78.45807       99.96660
H         32.04612       78.42747      102.18826
H         30.38749       78.37104      101.49346
H         29.38452       80.46771      101.59581
H         30.29093       81.98032      101.42005
N         30.89362       75.86308      100.18185
C         30.92033       74.42476      100.46405
C         29.66424       73.71139       99.99703
O         28.70499       74.35234       99.61123
C         31.16598       74.21089      101.97917
C         30.25648       75.09618      102.81687
C         30.82068       76.13002      103.58574
C         28.85699       74.94286      102.81096
C         30.00776       77.00397      104.31104
C         28.04494       75.82113      103.53647
C         28.61868       76.85919      104.28387
O         27.84813       77.72378      104.97425
H         29.99719       76.33502      100.01395
H         31.72729       73.95695       99.85851
H         32.22074       74.49348      102.18238
H         31.06495       73.14394      102.27013
H         31.89321       76.27667      103.60848
H         28.38430       74.15749      102.23995
H         30.45996       77.80329      104.88450
H         26.96928       75.69925      103.50955
H         26.88188       77.67007      104.96959
N         29.65105       72.33685      100.00821
C         28.57870       71.47489       99.51424
C         28.58237       71.36866       97.98925
O         28.61640       70.25135       97.49199
C         27.21616       71.79673      100.15930
C         26.17088       70.71284       99.84645
C         24.91731       70.92055      100.64606
O         24.26231       71.94212      100.51734
O         24.51076       69.97326      101.51403
H         30.47550       71.85406      100.39060
H         28.82377       70.44568       99.86957
H         26.83226       72.78755       99.84038
H         27.37165       71.81317      101.26149
H         26.58507       69.71459      100.11038
H         25.92697       70.71603       98.76247
N         28.61808       72.46606       97.17792
C         28.68912       72.38901       95.72177
C         29.95606       71.69067       95.23114
O         30.03643       71.41630       94.04103
C         28.66110       73.80833       95.09353
C         27.47362       74.70216       95.49879
C         26.15165       74.15866       95.05586
O         25.42643       74.84188       94.15490
O         25.71242       73.12180       95.52496
H         28.60734       73.39010       97.59824
H         27.81351       71.80282       95.37055
H         28.67267       73.72259       93.98348
H         29.58837       74.34167       95.40048
H         27.62759       75.69258       95.02580
H         27.44003       74.89006       96.58946
N         30.99715       71.39413       96.06327
C         32.19161       70.72920       95.59157
H         32.90882       70.60180       96.43059
H         31.93296       69.72632       95.19063
H         32.67732       71.33555       94.79804
H         30.96797       71.65499       97.05815
Ca        23.42375       74.07535       93.54833
O         20.27626       75.07156       93.70191
H         20.97641       75.77090       93.73640
H         20.41841       74.53871       94.52418
O         22.48216       74.03852       96.50303
H         21.97018       73.31305       96.94103
H         22.43798       74.79476       97.14026
O         23.00228       71.12197       94.52284
H         23.94975       71.19779       94.79887
H         23.03942       71.04219       93.53673

Ca 1.0



