%chk=apoCaM-CA-Ng.loop2.water3.frame156.chk
%nprocshared=20
%mem=10GB
%nosave
#b3lyp/svp scf=(tight,noincore,xqc) Test 
#IOP(5/87=12) Density=Current Pop=(MK,readradii) iop(6/33=2) iop(6/42=6)

apoCaM-CA-Ng.loop2.water3.frame156 

   -2  1 
C         68.46943       67.10466       29.18916
C         69.69521       67.44340       28.38931
O         70.79260       67.16619       28.85104
H         67.54077       67.39710       28.65470
H         68.43695       66.01014       29.37337
H         68.49821       67.63681       30.16309
N         69.58070       68.04947       27.17360
C         70.71728       68.39179       26.32412
C         70.83883       69.90737       26.12402
O         71.76081       70.32643       25.44099
C         70.53854       67.64078       24.98564
C         71.69279       67.81806       24.03967
O         71.51142       68.30625       22.93555
O         72.92938       67.42434       24.39901
H         68.63585       68.26938       26.82019
H         71.66612       68.04945       26.79307
H         69.59714       67.98049       24.49840
H         70.44204       66.55268       25.19461
N         69.95955       70.78632       26.69543
C         69.98790       72.24051       26.54671
C         71.21324       72.91426       27.22368
O         71.39936       72.38457       28.50226
C         69.77005       72.65930       25.08437
H         69.18995       70.42252       27.27361
H         69.11398       72.63659       27.11086
H         68.81159       72.23834       24.71387
H         69.72365       73.76603       25.00741
H         70.57318       72.29018       24.41525
N         72.47337       72.82967       26.47700
C         73.54930       73.64344       27.09890
C         74.72404       72.75784       27.49919
O         75.74104       73.29381       27.91874
C         74.01940       74.78348       26.15770
C         72.95347       75.81243       25.86454
O         71.71893       75.72157       26.39661
O         73.22109       76.76160       25.14605
H         72.33462       73.11105       25.48161
H         73.20856       74.13823       28.03845
H         74.38546       74.34920       25.20275
H         74.86072       75.32886       26.63902
N         74.63956       71.39390       27.46716
C         75.71069       70.50501       27.88988
C         76.16180       70.80945       29.29900
O         77.35097       71.00434       29.50994
H         73.76438       70.94111       27.17003
H         76.57135       70.58953       27.19063
H         75.33712       69.45881       27.84964
N         75.25349       70.93232       30.30608
C         75.63863       71.32500       31.65681
C         76.28858       70.15759       32.37705
O         75.67428       69.10769       32.50009
C         74.43815       71.86355       32.46006
C         73.87446       73.12168       31.82936
N         73.96627       74.31558       32.46202
O         73.33884       73.06601       30.73303
H         74.25362       70.82337       30.07761
H         76.35024       72.18133       31.59612
H         74.80580       72.11144       33.48048
H         73.63893       71.09843       32.55993
H         74.42603       74.39831       33.37995
H         73.59097       75.16945       32.02313
N         77.54451       70.28695       32.88485
C         78.27355       69.22733       33.56234
C         77.61824       68.76926       34.84865
O         77.30527       69.60161       35.68814
H         78.03202       71.18897       32.77102
H         79.27328       69.62768       33.83792
H         78.43642       68.37484       32.86867
N         77.47387       67.43496       35.10621
C         77.01867       66.91939       36.40096
C         75.50046       66.95147       36.55282
O         75.01707       66.60183       37.62182
C         77.58729       65.49376       36.67106
C         77.02918       64.38661       35.76118
O         78.99388       65.51210       36.62681
H         77.82744       66.77343       34.40064
H         77.45897       67.55970       37.19790
H         77.30588       65.20445       37.70750
H         79.27698       65.53222       35.67582
H         77.22869       64.58813       34.68885
H         77.49590       63.41468       36.02769
H         75.94124       64.28118       35.92129
N         74.68661       67.33458       35.52905
C         73.22601       67.34825       35.59619
C         72.71092       68.75814       35.35478
O         73.51289       69.64955       35.10085
C         72.63737       66.33717       34.54969
C         73.03308       66.69622       33.08541
C         73.06736       64.90698       34.90962
C         72.44158       65.76363       32.02687
H         75.11581       67.62645       34.64262
H         72.87201       67.04343       36.60608
H         71.52931       66.36187       34.62597
H         74.13377       66.67283       32.95446
H         72.68007       67.72267       32.85824
H         74.15702       64.79299       34.76909
H         72.80094       64.67482       35.96262
H         72.55405       64.15829       34.27372
H         72.73274       66.12573       31.01780
H         72.84256       64.73448       32.13195
H         71.33442       65.74381       32.09521
N         71.37016       69.01862       35.35128
C         70.82376       70.28149       34.87228
C         69.80065       70.90849       35.83318
O         69.17184       71.88542       35.45251
C         70.23664       69.98184       33.47613
C         70.08278       71.18006       32.58628
O         69.69680       71.01365       31.44112
O         70.42376       72.41684       32.99908
H         70.70765       68.25149       35.54576
H         71.64385       71.01662       34.71841
H         69.28094       69.42203       33.57208
H         70.95673       69.33544       32.92928
N         69.61237       70.44543       37.10911
C         68.65963       71.05634       38.04301
C         67.23327       70.73668       37.62810
O         66.92839       69.55836       37.53476
C         68.91604       70.56491       39.48933
C         67.95028       71.18887       40.48084
C         68.35434       72.26379       41.29110
C         66.63053       70.70826       40.59806
C         67.45185       72.85483       42.18298
C         65.73546       71.29728       41.49349
C         66.14398       72.37285       42.28282
H         70.20071       69.67198       37.45042
H         68.84967       72.14927       38.06250
H         69.95544       70.86896       39.74351
H         68.86963       69.45734       39.57500
H         69.36041       72.65680       41.22077
H         66.28901       69.87315       40.00243
H         67.76495       73.69017       42.79520
H         64.72397       70.91927       41.57309
H         65.44685       72.83096       42.97248
N         66.27508       71.69966       37.43506
C         64.89503       71.41613       37.05776
C         64.79883       70.68798       35.73089
O         64.08983       69.69520       35.64588
C         64.24292       72.80201       36.97486
C         65.02530       73.56603       38.01967
C         66.44891       73.11113       37.71478
H         64.41331       70.83165       37.87534
H         64.47378       73.28279       35.99784
H         63.13990       72.79331       37.11497
H         64.87665       74.66617       38.01469
H         64.73751       73.17131       39.02326
H         66.84841       73.61287       36.80550
H         67.07179       73.32616       38.60742
N         65.53967       71.10758       34.66148
C         65.54065       70.44271       33.35647
C         65.98841       68.97772       33.40702
O         65.87171       68.31081       32.38793
C         66.48377       71.18116       32.38375
C         66.00218       72.57677       31.96229
C         66.99567       73.15114       30.99268
O         66.70509       73.27296       29.81378
O         68.24030       73.44999       31.40572
H         66.14019       71.93636       34.79181
H         64.50398       70.45556       32.95436
H         66.58583       70.58502       31.44900
H         67.48069       71.24884       32.86351
H         65.88371       73.26317       32.82649
H         65.01938       72.46022       31.45715
N         66.51147       68.40864       34.52695
C         66.91226       67.02083       34.62553
H         67.98831       66.96818       34.89326
H         66.32147       66.52976       35.42836
H         66.75037       66.46281       33.68076
H         66.64805       68.97685       35.35855
Ca        69.93557       73.39374       29.91910
O         68.58569       76.07502       29.20406
H         67.68131       75.67441       29.17479
H         68.94407       75.94128       28.29077
O         71.88890       75.89354       29.98554
H         72.71958       76.39535       29.79048
H         71.42490       75.83465       29.11373
O         70.44641       75.60864       32.79914
H         70.27449       76.56806       32.97327
H         69.98031       75.13641       33.53403

Ca 1.0



