%chk=apoCaM-CA-Ng.loop4.water3.frame479.chk
%nprocshared=20
%mem=10GB
%nosave
#b3lyp/svp scf=(tight,noincore,xqc) Test 
#IOP(5/87=12) Density=Current Pop=(MK,readradii) iop(6/33=2) iop(6/42=6)

apoCaM-CA-Ng.loop4.water3.frame479 

   -3  1 
C         21.99785       67.82418       97.17235
C         20.79460       67.70826       98.05678
O         20.29791       66.60553       98.20051
H         22.80750       67.17393       97.56732
H         21.73376       67.48433       96.14812
H         22.36635       68.86843       97.12038
N         20.27074       68.79805       98.69108
C         19.10530       68.74414       99.56803
C         19.35881       67.89191      100.79689
O         18.74656       66.85646      100.94291
C         17.75896       68.52099       98.80392
C         17.67245       67.51169       97.67396
O         17.66304       66.17259       97.84231
O         17.54403       67.93579       96.53571
H         20.72973       69.71222       98.56437
H         18.94908       69.75552      100.00933
H         17.56736       69.50113       98.30988
H         16.92189       68.37759       99.52084
N         20.21669       68.35287      101.76138
C         20.47801       67.77948      103.09037
C         19.25988       67.89465      104.00790
O         19.32228       68.67414      104.94948
C         21.09946       66.35792      103.04119
C         21.40732       65.78327      104.45461
C         22.37551       66.37540      102.18305
C         22.41897       66.58457      105.28527
H         20.71290       69.23421      101.55587
H         21.25087       68.43879      103.54682
H         20.37766       65.65611      102.57040
H         21.80049       64.75042      104.33530
H         20.46517       65.70460      105.03757
H         23.10855       67.11772      102.56024
H         22.86031       65.38370      102.20898
H         22.13720       66.63399      101.12990
H         22.04750       67.60679      105.49849
H         22.58155       66.07341      106.25745
H         23.39967       66.65238      104.77294
N         18.11670       67.18342      103.79994
C         16.90776       67.37935      104.58481
C         17.01062       66.72111      105.95791
O         16.90200       67.46387      106.92372
C         15.65826       66.98920      103.76978
C         15.47206       67.85716      102.54326
O         16.33633       68.84965      102.24533
O         14.51270       67.66782      101.81377
H         18.06463       66.52097      103.02439
H         16.77133       68.47374      104.75914
H         14.75674       67.11725      104.40782
H         15.72720       65.94109      103.43143
N         17.25250       65.39460      106.20364
C         17.46630       64.32585      105.23862
C         16.17004       63.71102      104.74481
O         15.10992       64.22383      105.07601
H         17.36377       65.12335      107.19379
H         17.98075       63.50584      105.78211
H         18.15278       64.65048      104.43672
N         16.13411       62.56491      103.99535
C         17.30727       61.77029      103.60465
C         18.22873       62.55148      102.66397
O         17.79942       63.59596      102.19636
C         16.84502       60.42025      102.98638
C         16.11914       60.54112      101.66812
O         16.56816       59.99272      100.67458
O         14.94736       61.19830      101.58200
H         15.19657       62.20907      103.75675
H         17.85101       61.52744      104.53784
H         16.17523       59.90496      103.70733
H         17.70671       59.75009      102.84564
N         19.49858       62.17341      102.30875
C         20.25430       61.00563      102.74846
C         20.64516       61.03962      104.20856
O         20.28100       61.96544      104.92005
H         19.99379       62.78831      101.64525
H         21.21238       60.99190      102.18265
H         19.73757       60.06795      102.48982
N         21.46090       60.05895      104.70154
C         21.96454       60.03998      106.07290
C         23.45896       60.35091      106.14261
O         23.95534       60.50542      107.25012
C         21.54741       58.74324      106.80827
C         21.97341       57.40391      106.17679
C         23.46009       57.19604      106.10773
N         24.21839       57.20921      107.22811
O         23.98251       56.98267      105.02574
H         21.77661       59.31883      104.05639
H         21.49595       60.86934      106.64770
H         20.43615       58.73197      106.84917
H         21.90677       58.79036      107.85911
H         21.53086       57.31268      105.16194
H         21.54993       56.58301      106.79464
H         23.79585       57.36916      108.15342
H         25.23391       57.05288      107.17129
N         24.21010       60.57170      105.01957
C         25.54615       61.17040      105.05144
C         26.63235       60.31665      104.40103
O         27.75202       60.80415      104.32035
C         25.48963       62.58657      104.39558
C         24.57413       63.52280      105.19820
C         25.04666       62.56333      102.91989
H         23.79004       60.41829      104.09434
H         25.88468       61.32682      106.09991
H         26.51034       63.02802      104.43525
H         23.52536       63.15772      105.19732
H         24.92537       63.59546      106.24983
H         24.59619       64.54154      104.75916
H         25.09378       63.58888      102.49541
H         25.71483       61.91208      102.31922
H         24.00085       62.20879      102.80934
N         26.41813       59.04110      103.96174
C         27.47583       58.22586      103.35526
C         27.10303       57.69032      101.97583
O         27.96758       57.09593      101.34580
C         27.83245       57.04831      104.28420
C         28.33326       57.51135      105.63105
N         29.45450       58.26297      105.73683
O         27.72743       57.19025      106.64122
H         25.49552       58.61775      104.10575
H         28.39169       58.83716      103.20574
H         28.63279       56.43056      103.82147
H         26.93295       56.40614      104.41608
H         29.99174       58.53591      104.90159
H         29.79202       58.56933      106.66154
N         25.85648       57.83707      101.44107
C         25.47823       57.33921      100.11856
C         24.92017       58.46512       99.27611
O         24.69677       59.52828       99.81895
C         24.34239       56.30426      100.28228
C         24.76638       55.04781      100.98979
C         24.23367       54.72101      102.24760
C         25.66785       54.16698      100.37289
C         24.59859       53.52819      102.87776
C         26.02451       52.97067      101.00016
C         25.49165       52.64556      102.25213
O         25.83862       51.48284      102.83928
H         25.12146       58.30958      101.98522
H         26.34699       56.89480       99.58638
H         23.93207       55.99804       99.29578
H         23.51124       56.79596      100.83830
H         23.53364       55.38527      102.73908
H         26.07658       54.39742       99.39675
H         24.17967       53.28739      103.84667
H         26.70858       52.29178      100.50716
H         25.48317       51.21469      103.69852
N         24.60039       58.23652       97.96312
C         23.73051       59.01655       97.06893
C         24.05387       60.49638       96.81941
O         24.31202       60.84313       95.67461
C         22.23934       58.72972       97.38023
C         21.68432       59.22482       98.72334
C         20.27661       58.73520       98.91771
O         19.97472       57.95554       99.97380
O         19.40193       59.03352       98.12010
H         24.89313       57.32422       97.57863
H         23.84393       58.53548       96.06820
H         22.11449       57.62299       97.35184
H         21.61827       59.15686       96.56151
H         21.67842       60.33107       98.75445
H         22.29282       58.83318       99.56076
N         23.98980       61.43349       97.80459
C         24.11466       62.87683       97.61546
C         25.43279       63.31798       96.98635
O         25.53559       64.49188       96.65388
C         23.97047       63.61130       98.98236
C         22.71006       63.28492       99.81574
C         21.43506       63.75672       99.19562
O         21.07137       63.33579       98.11007
O         20.65369       64.61374       99.87536
H         23.75374       61.11932       98.73191
H         23.30169       63.18875       96.92548
H         24.01566       64.71240       98.82811
H         24.84623       63.32224       99.60602
H         22.82231       63.77753      100.79444
H         22.61359       62.21140      100.05470
N         26.48590       62.47336       96.79628
C         27.71514       62.92265       96.17788
H         28.44334       62.08617       96.12565
H         27.51043       63.28017       95.14564
H         28.16126       63.74846       96.77221
H         26.43670       61.49197       97.10071
Ca        17.66240       64.84391       99.65329
O         18.54414       61.77121       99.36078
H         17.86860       61.37945       98.75295
H         19.41085       61.54811       98.94092
O         15.20601       63.12355       99.15351
H         14.52118       63.77182       99.45461
H         15.79554       63.00799       99.93996
O         17.79025       63.29658       96.60246
H         18.57961       63.62497       96.10298
H         17.01564       63.70597       96.14107

Ca 1.0



