%chk=apoCaM-CA-Ng.loop2.water5.frame745.chk
%nprocshared=20
%mem=10GB
%nosave
#b3lyp/svp scf=(tight,noincore,xqc) Test 
#IOP(5/87=12) Density=Current Pop=(MK,readradii) iop(6/33=2) iop(6/42=6)

apoCaM-CA-Ng.loop2.water5.frame745 

   -2  1 
C         85.77008       32.71319       -8.32629
C         86.69800       33.86985       -8.55739
O         86.26553       34.88743       -9.07590
H         84.74244       32.95408       -8.67250
H         86.13473       31.82906       -8.89214
H         85.73822       32.46461       -7.24525
N         88.01310       33.75503       -8.22605
C         89.01675       34.78025       -8.49234
C         89.02312       35.86180       -7.41325
O         89.96247       35.90590       -6.62861
C         90.40451       34.10154       -8.62572
C         91.48035       35.08425       -9.00988
O         92.54364       35.27075       -8.20459
O         91.39506       35.71570      -10.05135
H         88.32964       32.84446       -7.85534
H         88.82701       35.24426       -9.48605
H         90.35513       33.32266       -9.41729
H         90.67740       33.60281       -7.66932
N         88.04978       36.81982       -7.35933
C         88.10559       37.94231       -6.42510
C         86.87326       38.00193       -5.53539
O         85.87963       37.37076       -5.86205
C         88.25008       39.23915       -7.23032
H         87.28321       36.80176       -8.04435
H         88.99103       37.82346       -5.76885
H         87.38131       39.36528       -7.91069
H         88.30805       40.13703       -6.58468
H         89.17683       39.19297       -7.84087
N         86.85538       38.68482       -4.34853
C         88.01830       39.34919       -3.76236
C         88.74040       38.39571       -2.83500
O         88.25334       37.29741       -2.60302
C         87.63488       40.71036       -3.14279
C         86.59027       40.62700       -2.06317
O         85.51098       41.17813       -2.21398
O         86.85007       39.98386       -0.91074
H         86.00890       38.59801       -3.76508
H         88.76686       39.58100       -4.53697
H         87.24888       41.35428       -3.96320
H         88.53605       41.20558       -2.72268
N         89.97398       38.71320       -2.35456
C         90.77850       37.78814       -1.57391
C         92.05360       37.42050       -2.30815
O         92.26401       37.90203       -3.41333
H         90.38597       39.62825       -2.59287
H         90.21516       36.86186       -1.37741
H         91.02838       38.26309       -0.60297
N         92.98857       36.58304       -1.77162
C         92.85487       35.92103       -0.47399
C         91.75819       34.86858       -0.57706
O         91.89396       33.98615       -1.41498
C         94.19881       35.26869       -0.06698
C         95.35227       36.25148       -0.12112
N         95.35223       37.38247        0.62253
O         96.29647       36.02277       -0.86344
H         93.84821       36.42424       -2.32200
H         92.61225       36.68503        0.29509
H         94.42941       34.42837       -0.75964
H         94.11505       34.85639        0.96120
H         94.56935       37.60489        1.25245
H         96.13955       38.04612        0.55956
N         90.60799       34.93784        0.16388
C         89.43310       34.16740       -0.22910
C         88.47518       33.85004        0.89643
O         88.83439       33.08338        1.77855
H         90.48216       35.73897        0.80113
H         89.72419       33.20117       -0.69590
H         88.90285       34.75385       -1.00736
N         87.20424       34.36342        0.88789
C         86.14669       33.93402        1.80714
C         84.84992       33.56118        1.02465
O         85.05704       33.35944       -0.34281
C         85.80273       35.04561        2.82378
C         87.00490       35.41740        3.69575
O         85.34369       36.18765        2.14793
H         86.96200       35.06221        0.17047
H         86.48978       33.04066        2.37495
H         84.99892       34.65311        3.49072
H         84.77017       36.69223        2.78218
H         86.70392       36.18922        4.43602
H         87.36971       34.52546        4.24738
H         87.83056       35.82823        3.07708
N         84.11044       32.43881        1.62298
C         82.86855       32.05920        0.90296
C         81.70022       32.98544        1.24010
O         81.38805       33.14444        2.41174
C         82.49795       30.58041        1.22833
C         81.22823       30.16702        0.42782
C         83.68625       29.65479        0.89903
C         80.78560       28.71783        0.61840
H         83.92154       32.60786        2.63773
H         83.04634       32.07704       -0.19413
H         82.28653       30.48574        2.31687
H         81.39553       30.33654       -0.65792
H         80.37909       30.80176        0.75525
H         83.92619       29.69156       -0.18481
H         84.58735       29.94880        1.47639
H         83.46529       28.60771        1.18842
H         79.84567       28.54812        0.05157
H         81.54084       28.01302        0.21600
H         80.60107       28.50570        1.69161
N         80.95819       33.55488        0.24084
C         79.77065       34.37864        0.47023
C         78.49480       33.74597       -0.09254
O         77.44244       34.34128        0.10012
C         79.95609       35.75127       -0.19595
C         81.19348       36.45584        0.26458
O         81.31181       36.80451        1.42817
O         82.19246       36.68559       -0.60749
H         81.23295       33.38096       -0.73316
H         79.61113       34.52383        1.56146
H         79.07885       36.40528        0.00446
H         80.02136       35.59607       -1.28995
N         78.48530       32.55930       -0.77519
C         77.26248       31.93134       -1.27548
C         77.38933       31.63047       -2.77312
O         77.27725       30.47044       -3.15057
C         77.02128       30.66220       -0.42095
C         75.74868       29.91320       -0.74663
C         74.49394       30.53375       -0.61497
C         75.80779       28.57031       -1.16233
C         73.32244       29.82335       -0.89808
C         74.63434       27.86444       -1.44287
C         73.39257       28.49013       -1.31085
H         79.36391       32.04411       -0.91793
H         76.38795       32.60072       -1.13443
H         76.96819       30.96119        0.64853
H         77.90101       29.99101       -0.53347
H         74.41985       31.56300       -0.28865
H         76.76112       28.06675       -1.26591
H         72.35894       30.30516       -0.79346
H         74.68810       26.83065       -1.75940
H         72.48495       27.94078       -1.52563
N         77.62555       32.60788       -3.70808
C         77.74335       32.36910       -5.14693
C         78.83440       31.39537       -5.58432
O         78.92649       31.12830       -6.77388
C         78.07488       33.75335       -5.71693
C         77.35230       34.66850       -4.75862
C         77.67168       34.02412       -3.41137
H         76.75176       32.00466       -5.49897
H         79.16295       33.95754       -5.57691
H         77.82718       33.88225       -6.79267
H         77.62298       35.74286       -4.83377
H         76.26116       34.55649       -4.95519
H         78.69362       34.27652       -3.05815
H         76.90330       34.34982       -2.67992
N         79.70643       30.84257       -4.69380
C         80.72300       29.86801       -5.05602
C         80.02083       28.63075       -5.57763
O         80.30026       28.22136       -6.69632
C         81.62542       29.51649       -3.84056
C         82.79290       30.50390       -3.57437
C         82.50475       31.91737       -3.13702
O         83.44312       32.67294       -2.94782
O         81.26356       32.37472       -2.93235
H         79.61909       31.08133       -3.70681
H         81.38613       30.26455       -5.85780
H         82.14619       28.56499       -4.08934
H         81.02030       29.32329       -2.92786
H         83.40213       30.56384       -4.50170
H         83.42829       30.05569       -2.77995
N         79.05839       28.01619       -4.83415
C         78.29916       26.87335       -5.29890
H         77.22514       27.15053       -5.35862
H         78.62345       26.52781       -6.30321
H         78.41580       26.03552       -4.58188
H         78.82269       28.39486       -3.90475
Ca        83.58481       34.95673       -1.01863
O         83.78207       35.07934       -4.81670
H         84.54709       35.20570       -5.43060
H         82.99033       35.07079       -5.41072
O         81.20336       35.89451       -3.59035
H         81.10156       34.93763       -3.35968
H         80.27888       36.24690       -3.61254
O         83.45660       37.92134       -3.12167
H         83.75777       38.52891       -2.40021
H         82.93023       38.49990       -3.72805
O         86.34962       34.39633       -3.14482
H         86.99987       33.76800       -3.54734
H         86.90478       35.00961       -2.60266
O         85.58847       36.92001       -1.21363
H         85.26410       36.78901       -0.29022
H         86.28426       37.60997       -1.11744

Ca 1.0



