%chk=apoCaM-CA-Ng.loop1.water5.frame553.chk
%nprocshared=20
%mem=10GB
%nosave
#b3lyp/svp scf=(tight,noincore,xqc) Test 
#IOP(5/87=12) Density=Current Pop=(MK,readradii) iop(6/33=2) iop(6/42=6)

apoCaM-CA-Ng.loop1.water5.frame553 

   0  1 
C         75.23002       55.66286       61.52394
C         74.18427       54.94719       60.72458
O         73.00626       55.23444       60.88200
H         75.92179       56.19017       60.83229
H         74.76706       56.41194       62.20050
H         75.80620       54.93212       62.12783
N         74.56214       54.01385       59.80675
C         73.64165       53.30960       58.92074
C         72.85666       54.29298       58.06346
O         71.72713       53.99650       57.71356
C         72.71974       52.34660       59.70562
C         73.50863       51.33944       60.49323
O         73.38111       51.28088       61.83247
O         74.25810       50.56206       59.92358
H         75.56934       53.82058       59.69173
H         74.25070       52.69357       58.22143
H         72.06474       51.79196       58.99868
H         72.06640       52.92231       60.39498
N         73.43946       55.46069       57.65372
C         72.85314       56.50633       56.81639
C         71.74130       57.31268       57.49310
O         71.94103       58.50205       57.69869
C         72.43438       55.95612       55.43213
C         71.99488       57.03662       54.42100
C         73.09996       58.06533       54.12703
C         72.68049       59.05704       53.03711
N         73.73004       60.05301       52.81709
H         74.41858       55.62456       57.93341
H         73.68408       57.22228       56.64049
H         71.59755       55.23583       55.54500
H         73.29649       55.40532       54.99616
H         71.08706       57.56015       54.79222
H         71.72779       56.51759       53.47427
H         74.02048       57.53581       53.79692
H         73.32407       58.64739       55.04395
H         71.74461       59.57546       53.34243
H         72.48734       58.50685       52.08941
H         74.62015       59.58430       52.53022
H         73.43112       60.70789       52.05930
H         73.89071       60.60252       53.69299
N         70.53021       56.76719       57.79976
C         69.37670       57.52383       58.27520
C         68.95958       56.97043       59.64248
O         68.61794       55.79617       59.67794
C         68.28321       57.31646       57.19249
C         66.99661       58.06207       57.35223
O         66.80888       58.92088       58.35828
O         66.10879       57.90289       56.53057
H         70.36535       55.77532       57.61326
H         69.62025       58.59908       58.32426
H         68.04324       56.23172       57.13253
H         68.70655       57.62514       56.21129
N         68.99751       57.65524       60.83339
C         69.40159       59.03520       61.07323
C         68.36670       59.73594       61.92974
O         68.67363       60.11906       63.04992
H         68.75657       57.11767       61.68226
H         69.56966       59.61423       60.14948
H         70.35815       59.01701       61.63982
N         67.10705       59.91985       61.45833
C         66.00876       60.51358       62.20746
C         64.89056       59.50322       62.39245
O         64.97160       58.39424       61.87934
C         65.53857       61.83388       61.54328
C         65.57988       61.88873       60.02804
O         64.88293       61.05999       59.22399
O         66.28626       62.73363       59.49992
H         66.89932       59.59116       60.51578
H         66.32655       60.76459       63.24418
H         66.24186       62.62395       61.89009
H         64.53525       62.12736       61.91715
N         63.83944       59.80562       63.20945
C         62.75968       58.88326       63.52894
C         63.18619       57.66540       64.34174
O         62.31207       56.88585       64.69149
H         63.79769       60.74243       63.63870
H         62.25525       58.56816       62.59467
H         62.01018       59.42864       64.14391
N         64.48751       57.43259       64.68829
C         64.94027       56.30992       65.50138
C         65.79066       55.37940       64.65761
O         66.68017       55.84908       63.96141
C         65.70477       56.82055       66.74814
C         67.00370       57.58665       66.43659
O         64.84496       57.64495       67.49177
H         65.21666       58.07674       64.37210
H         64.07259       55.72928       65.88668
H         65.97044       55.92100       67.35217
H         65.20600       57.68140       68.41563
H         66.80968       58.50336       65.84371
H         67.48862       57.89423       67.38562
H         67.72747       56.94562       65.89425
N         65.55821       54.03492       64.66832
C         66.29600       53.09377       63.82843
C         65.37781       52.39765       62.83461
O         65.90025       51.69440       61.97891
C         67.11284       52.07484       64.68180
C         66.20991       51.20184       65.59496
C         68.19150       52.82141       65.48886
C         66.96807       50.07549       66.30493
H         64.82680       53.66773       65.29437
H         67.02583       53.64635       63.19689
H         67.64187       51.39968       63.97183
H         65.42498       50.71914       64.97447
H         65.71055       51.83005       66.36279
H         68.83022       53.42077       64.80544
H         67.72966       53.50297       66.23429
H         68.86422       52.11583       66.01597
H         67.73326       50.47082       67.00277
H         66.25489       49.46933       66.90269
H         67.45670       49.41113       65.56078
N         64.01753       52.53628       62.86694
C         63.13511       51.92202       61.88710
C         62.34450       50.82918       62.55439
O         61.60711       51.10136       63.49317
C         62.19145       52.96773       61.26349
C         62.98106       54.06827       60.56035
O         61.35429       52.33202       60.33091
H         63.56567       53.08157       63.61410
H         63.72697       51.47200       61.05972
H         61.57576       53.42358       62.07662
H         60.54424       52.89854       60.23627
H         63.62693       53.63238       59.77022
H         62.27580       54.77632       60.08544
H         63.61164       54.62415       61.28731
N         62.48563       49.54646       62.12450
C         61.79178       48.42118       62.72634
C         62.41899       47.13185       62.21342
O         62.91979       46.36694       63.02563
C         60.25255       48.50815       62.48856
C         59.49385       47.46160       63.31241
O         59.94937       48.36874       61.12461
H         63.15884       49.36198       61.36380
H         61.96895       48.46364       63.82571
H         59.89531       49.50254       62.83509
H         58.99819       48.62975       61.00710
H         58.39959       47.58199       63.15767
H         59.78653       46.43215       63.02206
H         59.70110       47.61240       64.39405
N         62.45339       46.84074       60.87739
C         63.03799       45.61888       60.34105
C         64.02722       45.91754       59.22400
O         63.66985       46.58224       58.26072
C         61.90387       44.71913       59.84269
C         62.41694       43.34467       59.36729
C         61.26624       42.40167       58.99293
C         60.47060       41.92175       60.22210
N         59.32561       41.11121       59.81633
H         62.01113       47.48884       60.20913
H         63.54961       45.04663       61.14550
H         61.33995       45.21696       59.02255
H         61.21930       44.58853       60.70280
H         63.04472       42.86211       60.14932
H         63.05047       43.50104       58.46719
H         61.69248       41.50254       58.49622
H         60.60154       42.91697       58.26675
H         60.08745       42.77171       60.82049
H         61.14403       41.32100       60.87486
H         58.65047       41.70735       59.28369
H         59.63497       40.30803       59.22346
H         58.84746       40.74515       60.67117
N         65.27279       45.36476       59.25742
C         66.23606       45.47369       58.16697
C         66.70056       46.91422       57.95343
O         66.50881       47.40320       56.84892
C         67.38567       44.46046       58.38320
C         68.43680       44.47709       57.26592
C         69.46473       43.40641       57.50361
O         69.63233       42.52095       56.68028
O         70.20537       43.41660       58.62902
H         65.51573       44.76946       60.06403
H         65.73449       45.13596       57.22967
H         66.92901       43.44529       58.41753
H         67.88349       44.61590       59.35532
H         68.94957       45.46207       57.24054
H         67.94181       44.30763       56.28437
N         67.29881       47.69074       58.90412
C         67.56385       47.28769       60.26702
H         68.01769       48.13593       60.82186
H         66.62045       47.00934       60.77854
H         68.29409       46.46132       60.30148
H         67.56580       48.65340       58.64357
Ca        63.60402       59.26618       59.67610
O         61.07608       60.45383       58.88622
H         60.77700       60.25639       59.80930
H         61.73385       61.18671       58.99212
O         62.75867       57.33615       56.67364
H         62.97662       56.94693       55.78952
H         61.88325       56.93976       56.91162
O         64.75278       56.11302       58.82458
H         65.30460       55.75525       59.56482
H         64.64347       55.34923       58.20363
O         61.58791       57.23743       60.17349
H         62.05225       56.92878       60.99165
H         60.86048       57.81939       60.50605
O         64.15157       60.16451       56.42312
H         64.27542       61.13658       56.28293
H         63.59331       59.87141       55.65997

Ca 1.0



