%chk=apoCaM-CA-Ng.loop4.water5.frame692.chk
%nprocshared=20
%mem=10GB
%nosave
#b3lyp/svp scf=(tight,noincore,xqc) Test 
#IOP(5/87=12) Density=Current Pop=(MK,readradii) iop(6/33=2) iop(6/42=6)

apoCaM-CA-Ng.loop4.water5.frame692 

   -3  1 
C         91.36741       73.51776      116.92508
C         92.56440       73.38680      117.81453
O         93.55899       74.06442      117.60092
H         90.48968       73.83461      117.52585
H         91.54553       74.27356      116.14165
H         91.14838       72.53888      116.44690
N         92.51887       72.51328      118.85409
C         93.59713       72.27553      119.80492
C         93.93220       73.54540      120.57904
O         95.10114       73.88500      120.70792
C         94.85077       71.69769      119.10564
C         94.54183       70.58824      118.14178
O         93.96750       69.44222      118.54170
O         94.83751       70.71952      116.96429
H         91.65024       71.97243      118.99170
H         93.21913       71.52164      120.53143
H         95.57205       71.34040      119.87235
H         95.34939       72.50441      118.52507
N         92.93846       74.33320      121.08033
C         93.22065       75.59245      121.77552
C         93.75135       75.29887      123.19032
O         93.57530       74.17327      123.63669
C         91.97063       76.53533      121.75660
C         90.77920       75.96114      122.56641
C         91.59139       76.86772      120.29704
C         89.59519       76.92516      122.66599
H         91.96610       74.05778      120.88656
H         94.00268       76.11280      121.18707
H         92.23724       77.49761      122.21963
H         91.12071       75.75974      123.60401
H         90.41694       75.00854      122.13018
H         91.25545       75.96599      119.74461
H         90.78802       77.62958      120.25099
H         92.46712       77.30022      119.76622
H         88.80889       76.47614      123.30796
H         89.91709       77.88701      123.11893
H         89.14483       77.11733      121.67131
N         94.41404       76.20207      123.98460
C         94.80149       77.55933      123.60326
C         95.77763       77.59275      122.43505
O         95.93681       78.65821      121.85474
C         95.33923       78.36001      124.81388
C         96.58505       77.81210      125.46465
O         97.13833       76.80816      125.04466
O         97.09062       78.44210      126.54201
H         94.66857       75.88255      124.93260
H         93.89370       78.09872      123.29415
H         94.53966       78.39278      125.58610
H         95.54354       79.40572      124.49629
N         96.42295       76.47100      121.99275
C         97.16588       76.44387      120.74577
C         98.35596       77.36598      120.70698
O         98.73933       77.94094      121.71647
H         96.32005       75.57996      122.49826
H         96.46442       76.74166      119.93658
H         97.51656       75.41160      120.52815
N         98.95773       77.57901      119.50557
C        100.07429       78.48646      119.29637
C         99.63835       79.72671      118.52380
O        100.49464       80.54902      118.22852
C        101.24651       77.72032      118.63649
C        100.91487       77.06783      117.32009
O        100.97342       75.72753      117.20115
O        100.62719       77.74093      116.34712
H         98.56422       77.10759      118.67547
H        100.45910       78.86929      120.26700
H        101.56203       76.92194      119.34230
H        102.11282       78.40141      118.49100
N         98.32309       79.98332      118.23271
C         97.89746       81.21403      117.58228
C         98.33533       81.31156      116.13714
O         98.17775       82.37625      115.55744
H         97.58396       79.33207      118.53326
H         98.30476       82.07209      118.16012
H         96.78817       81.29279      117.60109
N         98.84617       80.23398      115.47262
C         99.30030       80.25494      114.08813
C         98.18746       80.53327      113.09033
O         98.49513       80.63900      111.90997
C        100.54331       81.15723      113.91035
C        101.73219       80.58141      114.70546
C        103.02731       81.28736      114.40169
N        103.77249       81.83051      115.39166
O        103.42939       81.33571      113.24837
H         98.90421       79.33292      115.95765
H         99.63889       79.22940      113.81678
H        100.33898       82.21069      114.19719
H        100.82534       81.14305      112.83495
H        101.87559       79.51778      114.41626
H        101.51141       80.61461      115.79273
H        103.46810       81.77931      116.37443
H        104.67171       82.28604      115.17523
N         96.86892       80.50279      113.45123
C         95.78950       80.50450      112.47069
C         95.19329       79.11123      112.33370
O         94.37408       78.93158      111.44468
C         94.69718       81.56096      112.79360
C         93.97450       81.28846      114.12528
C         95.28491       82.97633      112.78808
H         96.61550       80.33718      114.43415
H         96.19462       80.74288      111.46214
H         93.93220       81.51694      111.98571
H         93.16273       82.03197      114.27407
H         93.50884       80.28007      114.11952
H         94.66792       81.35897      114.98814
H         95.75484       83.18963      111.80441
H         94.47992       83.72372      112.95503
H         96.04914       83.09081      113.58543
N         95.55668       78.07559      113.15765
C         95.04159       76.72360      112.99631
C         96.20026       75.75142      112.79158
O         97.34785       76.10398      113.01901
C         94.12861       76.39835      114.19760
C         93.32758       75.12887      114.03528
N         91.99234       75.18726      113.81239
O         93.87783       74.04147      114.11582
H         96.21175       78.22767      113.93535
H         94.41124       76.68121      112.08195
H         93.40764       77.24244      114.26829
H         94.69756       76.37647      115.15247
H         91.50298       76.09187      113.74519
H         91.44172       74.32337      113.69838
N         95.95491       74.53258      112.23997
C         97.00246       73.57358      111.87398
C         96.40657       72.47735      110.98435
O         95.19362       72.40059      110.85304
C         97.65680       72.96536      113.14420
C         98.83742       72.07070      112.83623
C         98.74221       70.67922      113.01512
C        100.04099       72.61738      112.35508
C         99.82325       69.84941      112.70089
C        101.12645       71.78566      112.05594
C        101.02006       70.40049      112.22072
O        102.06992       69.61147      111.91303
H         94.97855       74.34692      111.98342
H         97.75317       74.12195      111.26300
H         96.86783       72.39248      113.67899
H         98.01021       73.75700      113.83872
H         97.82455       70.23334      113.37649
H        100.14110       73.68671      112.21640
H         99.72803       68.77830      112.82779
H        102.05046       72.21722      111.69039
H        102.03458       68.64809      112.00176
N         97.20789       71.61420      110.29613
C         96.66686       70.61704      109.38701
C         97.08454       69.21987      109.83472
O         98.10023       68.73719      109.35385
C         97.10367       70.96174      107.94806
C         96.44483       70.04286      106.90674
C         96.79007       70.48086      105.51354
O         96.43155       71.70627      105.08318
O         97.37993       69.72503      104.75863
H         98.23111       71.69457      110.36603
H         95.56982       70.67983      109.34899
H         98.21115       70.92128      107.85400
H         96.77872       72.00691      107.74244
H         95.33921       70.08112      107.01554
H         96.77668       68.99449      107.06584
N         96.38986       68.48399      110.76040
C         95.16876       68.91399      111.45049
C         94.00881       69.09912      110.48182
O         94.11256       68.73125      109.31810
C         94.72930       67.86038      112.50201
C         95.73210       67.64635      113.64830
C         95.29283       66.47007      114.48379
O         95.97329       65.45710      114.50093
O         94.13061       66.48743      115.16778
H         96.77636       67.55531      110.99041
H         95.37451       69.87883      111.96172
H         94.57639       66.89570      111.96554
H         93.75951       68.15172      112.96099
H         95.81830       68.56253      114.27138
H         96.73423       67.41758      113.23015
N         92.85808       69.68611      110.91101
C         91.73367       69.91597      110.03144
H         90.91482       70.41768      110.58981
H         92.04095       70.57241      109.18916
H         91.35701       68.95043      109.63345
H         92.78241       70.00115      111.89008
Ca        93.80665       67.91913      116.88220
O         92.91315       64.66801      117.15217
H         93.54762       64.20887      116.54636
H         92.55022       63.94635      117.72402
O         92.06487       66.46688      119.72152
H         91.48431       66.88938      120.40334
H         92.04845       65.50246      119.94561
O         91.61319       68.95383      115.02196
H         90.80160       68.83758      114.46705
H         92.07506       69.73686      114.62972
O         90.30961       66.73133      116.90805
H         90.31892       65.95173      116.29763
H         89.44357       67.17658      116.72842
O         95.83143       66.53569      118.67378
H         96.07206       67.45005      118.96825
H         96.41594       66.36499      117.89290

Ca 1.0



