%chk=apoCaM-CA-Ng.loop2.water2.frame999.chk
%nprocshared=20
%mem=10GB
%nosave
#b3lyp/svp scf=(tight,noincore,xqc) Test 
#IOP(5/87=12) Density=Current Pop=(MK,readradii) iop(6/33=2) iop(6/42=6)

apoCaM-CA-Ng.loop2.water2.frame999 

   -2  1 
C         77.73104       88.23136       44.99679
C         76.29575       88.07721       44.59983
O         76.01728       87.96469       43.41407
H         78.38856       88.20694       44.10106
H         77.86976       89.19969       45.51952
H         78.02149       87.40010       45.67313
N         75.32358       88.03763       45.55470
C         73.91369       87.85394       45.24233
C         73.48464       86.49471       45.75510
O         72.54227       86.39086       46.52953
C         73.10214       89.03486       45.82613
C         71.63415       89.03124       45.47312
O         71.14866       88.15952       44.76863
O         70.84517       90.01887       45.93662
H         75.59896       88.10434       46.54737
H         73.75842       87.84282       44.14148
H         73.53074       89.98319       45.43691
H         73.20567       89.03678       46.93353
N         74.17269       85.39034       45.34652
C         73.81102       84.03234       45.71930
C         74.85380       83.43692       46.65818
O         75.89284       84.05399       46.84977
C         73.67235       83.21401       44.42376
H         74.99788       85.51630       44.73991
H         72.84575       84.05039       46.26786
H         72.89240       83.67054       43.77855
H         74.63564       83.21950       43.86947
H         73.39796       82.15668       44.58766
N         74.65320       82.27391       47.34972
C         73.43054       81.47555       47.30077
C         72.68725       81.53222       48.61927
O         73.21616       82.01979       49.60785
C         73.70984       80.03579       46.80902
C         74.68113       79.25560       47.65275
O         74.29473       78.10377       48.23008
O         75.83955       79.62149       47.76327
H         75.39774       81.97750       47.99810
H         72.71383       81.91010       46.58909
H         74.12182       80.08087       45.77808
H         72.74915       79.47906       46.76162
N         71.38180       81.14656       48.65132
C         70.51967       81.26189       49.81294
C         69.77044       79.96850       50.00373
O         68.56818       79.96346       49.78078
H         70.94519       80.82080       47.77442
H         69.77609       82.05787       49.58687
H         71.06146       81.56946       50.73094
N         70.37559       78.80165       50.35675
C         71.76840       78.67611       50.76876
C         71.90873       79.28957       52.15464
O         71.14919       78.90597       53.03447
C         72.14703       77.17888       50.78653
C         73.60728       76.89508       51.03364
N         74.03440       75.61357       51.07416
O         74.41071       77.80359       51.17837
H         69.78739       77.95240       50.36472
H         72.43116       79.15793       50.02056
H         71.90719       76.74814       49.78906
H         71.53700       76.65013       51.55015
H         73.37298       74.83538       50.93998
H         75.02460       75.39548       51.24326
N         72.84824       80.23866       52.43002
C         72.93467       80.91354       53.71946
C         74.10725       80.46626       54.56565
O         74.24272       80.98940       55.66267
H         73.52643       80.50063       51.70218
H         72.02637       80.71812       54.32948
H         72.97567       82.00992       53.54446
N         74.95378       79.47178       54.17173
C         76.00400       78.92519       55.02840
C         77.36841       79.05880       54.37978
O         77.47159       79.55255       53.26479
C         75.69680       77.43214       55.34645
C         74.38096       77.25894       56.11737
O         75.71123       76.64035       54.18287
H         74.82443       79.04206       53.24877
H         76.05156       79.47240       55.99452
H         76.48130       77.03154       56.02012
H         74.87102       76.80609       53.68404
H         74.41847       77.83978       57.06354
H         73.51488       77.60539       55.51546
H         74.23386       76.18692       56.36910
N         78.46763       78.58863       55.03575
C         79.80294       78.54093       54.46397
C         80.09116       77.07170       54.21021
O         80.15161       76.28113       55.14158
C         80.80855       79.24962       55.40654
C         82.29271       79.06449       54.99986
C         80.44448       80.74243       55.53071
C         82.67300       79.60833       53.62112
H         78.34776       78.17225       55.97087
H         79.81863       79.07379       53.48744
H         80.70853       78.79412       56.41692
H         82.54154       77.98202       55.02605
H         82.92960       79.56566       55.76173
H         81.12668       81.25115       56.24286
H         80.50397       81.25368       54.54653
H         79.40721       80.86375       55.90909
H         82.10291       79.09295       52.82215
H         82.50169       80.70185       53.55844
H         83.75477       79.42395       53.44808
N         80.12597       76.63811       52.92327
C         80.06226       75.24656       52.50694
C         80.99237       75.01097       51.32201
O         80.57000       74.48441       50.30462
C         78.57625       74.83868       52.22688
C         77.83241       75.87694       51.42322
O         77.67797       76.99080       51.89605
O         77.30246       75.64317       50.21158
H         80.00797       77.34695       52.19660
H         80.42962       74.58139       53.31912
H         78.03945       74.75439       53.19715
H         78.53766       73.83887       51.74208
N         82.31557       75.32372       51.44377
C         83.34332       74.89291       50.49913
C         84.18054       76.06878       49.97461
O         84.64252       76.85350       50.78425
C         84.26973       73.94241       51.28217
C         85.34986       73.34864       50.42071
C         86.62892       73.92695       50.39780
C         85.08884       72.21424       49.63538
C         87.63242       73.38091       49.59549
C         86.10000       71.66326       48.84270
C         87.36997       72.24763       48.82125
H         82.62767       75.78852       52.30865
H         82.90001       74.31233       49.66590
H         83.68319       73.11629       51.74265
H         84.72876       74.50254       52.12699
H         86.84345       74.80696       50.99170
H         84.10804       71.75419       49.64466
H         88.61334       73.83693       49.57625
H         85.89919       70.78366       48.24526
H         88.15103       71.82270       48.20523
N         84.52806       76.18456       48.64594
C         85.53022       77.13395       48.15778
C         85.00535       78.54866       47.95509
O         85.77412       79.38841       47.50172
C         85.99137       76.49056       46.84436
C         84.70857       75.87767       46.32758
C         84.12871       75.26528       47.60048
H         86.41108       77.18247       48.83475
H         86.52912       77.16487       46.14319
H         86.67184       75.64291       47.09403
H         84.04992       76.71252       45.99862
H         84.82662       75.16065       45.48704
H         83.02688       75.16361       47.49704
H         84.59145       74.27625       47.80525
N         83.73164       78.90276       48.27567
C         83.19483       80.25763       48.11189
C         83.87829       81.31268       48.98255
O         83.52429       82.47487       48.84362
C         81.66512       80.22549       48.33263
C         81.24523       79.82645       49.76025
C         80.00512       78.98015       49.69086
O         80.11019       77.79716       49.96126
O         78.82757       79.41386       49.19604
H         83.09900       78.16105       48.60714
H         83.35003       80.55201       47.04980
H         81.30894       79.45413       47.61202
H         81.16213       81.17676       48.05399
H         81.15526       80.70824       50.43043
H         82.02587       79.18029       50.21719
N         84.87368       81.00611       49.86940
C         85.58676       82.00215       50.64592
H         86.66488       81.96905       50.37727
H         85.21917       83.03314       50.46213
H         85.48198       81.77476       51.72664
H         85.17276       80.03277       50.00650
Ca        77.46413       77.59564       49.09095
O         78.62677       77.36267       46.43412
H         77.94646       78.08262       46.43525
H         79.35550       77.70916       47.00813
O         76.38715       80.64355       50.63331
H         76.74958       81.40701       51.14853
H         75.45982       80.91043       50.41835

Ca 1.0



