%chk=apoCaM-CA-Ng.loop1.water2.frame1281.chk
%nprocshared=20
%mem=10GB
%nosave
#b3lyp/svp scf=(tight,noincore,xqc) Test 
#IOP(5/87=12) Density=Current Pop=(MK,readradii) iop(6/33=2) iop(6/42=6)

apoCaM-CA-Ng.loop1.water2.frame1281 

   0  1 
C         39.77593       34.62299       25.16842
C         40.39970       35.98256       25.26259
O         39.68234       36.95219       25.46603
H         38.67374       34.68626       25.29631
H         39.99301       34.18143       24.17288
H         40.19199       33.96697       25.96058
N         41.74636       36.12657       25.10194
C         42.42115       37.42122       25.14542
C         42.97054       37.75877       23.77192
O         44.13644       38.10060       23.62643
C         43.47497       37.44739       26.27944
C         44.60390       36.44687       26.16072
O         44.69565       35.68887       25.20783
O         45.53656       36.39575       27.13010
H         42.30180       35.28106       24.90618
H         41.68572       38.22115       25.37282
H         42.94838       37.25264       27.23855
H         43.92025       38.46391       26.33448
N         42.14350       37.65461       22.69766
C         42.55288       37.93233       21.32924
C         42.70887       39.41994       21.08168
O         43.78627       39.80168       20.64671
C         41.61067       37.25456       20.31393
C         41.70547       35.72717       20.48431
C         40.90770       34.96322       19.43126
C         41.11877       33.45345       19.61933
N         40.39959       32.68956       18.60385
H         41.18959       37.29894       22.86052
H         43.54513       37.45788       21.14748
H         41.95630       37.51336       19.28862
H         40.56009       37.59498       20.42011
H         41.34931       35.43062       21.49479
H         42.77327       35.42800       20.38775
H         41.26285       35.25745       18.41954
H         39.82833       35.21248       19.52368
H         40.76644       33.14908       20.63057
H         42.20531       33.21960       19.54511
H         40.57522       31.67048       18.75889
H         39.37329       32.87486       18.67644
H         40.74310       32.95079       17.65109
N         41.75693       40.36092       21.34766
C         40.45048       40.14938       21.96560
C         40.51030       40.59086       23.42514
O         41.56929       40.99679       23.88623
C         39.33283       40.78807       21.09424
C         39.65848       42.13262       20.48276
O         39.88735       43.23013       21.22514
O         39.71214       42.23030       19.26657
H         42.02737       41.34169       21.17829
H         40.18856       39.08298       22.03945
H         38.37033       40.83211       21.64650
H         39.17264       40.09744       20.23575
N         39.42378       40.46227       24.24202
C         39.47098       40.69786       25.68100
C         39.89492       42.12555       26.06745
O         38.99796       43.04806       25.53307
H         38.53540       40.12103       23.84558
H         40.19215       39.98358       26.13054
H         38.46862       40.48945       26.11651
N         39.93068       42.25597       27.53034
C         40.27269       43.60874       28.01783
C         39.79824       43.73265       29.46425
O         40.05131       42.81430       30.23162
C         41.78310       43.91993       27.93388
C         42.29946       43.92972       26.52204
O         41.83577       44.70595       25.70155
O         43.29035       43.09383       26.15985
H         40.59668       41.55525       27.93368
H         39.73976       44.34387       27.39332
H         42.35547       43.18681       28.54104
H         41.95994       44.93372       28.35767
N         39.07536       44.79604       29.93506
C         38.85524       46.03427       29.20319
C         37.43736       46.18096       28.72027
O         36.57008       45.41316       29.11497
H         38.70851       44.74984       30.89900
H         39.53333       46.12347       28.34126
H         39.12982       46.89948       29.84295
N         37.15671       47.14444       27.79524
C         35.82934       47.38253       27.23568
C         35.61026       46.61260       25.93261
O         35.22953       47.19419       24.92673
C         35.54465       48.90721       27.11882
C         36.52148       49.67542       26.20766
O         35.58389       49.48357       28.40052
H         37.94537       47.70583       27.44859
H         35.06460       46.96853       27.93018
H         34.52481       49.01815       26.67535
H         34.68842       49.87102       28.58456
H         36.19986       50.73518       26.13242
H         37.55236       49.67762       26.61583
H         36.55101       49.25630       25.18204
N         35.75059       45.25810       25.92009
C         35.39363       44.40485       24.78689
C         36.22994       44.75047       23.56363
O         37.43864       44.62547       23.61883
C         35.54239       42.89622       25.19341
C         34.50600       42.54691       26.30218
C         35.38824       41.95031       23.98428
C         34.67200       41.14937       26.90155
H         36.08366       44.80738       26.78115
H         34.32326       44.57248       24.53611
H         36.56308       42.74327       25.59812
H         33.47607       42.65043       25.89650
H         34.59992       43.25250       27.15206
H         35.55502       40.89501       24.27977
H         34.38098       42.05026       23.52990
H         36.15734       42.16566       23.21362
H         33.92227       41.01014       27.70963
H         34.50053       40.35456       26.14972
H         35.68660       41.03781       27.33973
N         35.62320       45.16247       22.41025
C         36.33880       45.38578       21.15076
C         36.28231       46.84116       20.68802
O         36.81456       47.11993       19.61702
C         35.79195       44.42857       20.05586
C         34.33229       44.69580       19.66614
O         35.90369       43.09580       20.48807
H         34.60249       45.28893       22.41264
H         37.40592       45.12805       21.27420
H         36.39231       44.57458       19.12424
H         36.76536       42.74297       20.14434
H         34.20829       45.73376       19.29223
H         34.03237       44.00020       18.85355
H         33.64658       44.53305       20.52198
N         35.66307       47.82102       21.40364
C         35.53338       49.20236       20.93555
C         36.89581       49.86805       20.76849
O         37.59339       50.04701       21.75811
C         34.64936       50.00896       21.91822
C         34.46653       51.46683       21.48348
O         33.38879       49.39300       22.00077
H         35.22407       47.57139       22.30349
H         35.01268       49.17854       19.95149
H         35.14307       49.99156       22.92012
H         32.98803       49.66615       22.86694
H         33.82177       51.99434       22.21764
H         35.44276       51.99465       21.44951
H         33.98989       51.51537       20.48214
N         37.33503       50.24533       19.52713
C         38.63379       50.86509       19.25117
C         39.73960       50.05840       19.90563
O         40.53501       50.59211       20.66849
C         38.65485       52.35100       19.67937
C         37.64258       53.24770       18.93851
C         37.90567       53.33159       17.42338
C         36.99763       54.37227       16.75286
N         37.25569       54.44264       15.31383
H         36.74454       50.02224       18.71125
H         38.81725       50.82046       18.15741
H         39.66937       52.76801       19.49199
H         38.45536       52.41916       20.77059
H         37.74543       54.26941       19.36571
H         36.60416       52.89818       19.12593
H         37.72483       52.34355       16.95077
H         38.96383       53.62660       17.25018
H         37.18816       55.37138       17.20508
H         35.93069       54.10719       16.92211
H         36.64368       55.17718       14.89035
H         38.25542       54.69497       15.13673
H         37.04018       53.52307       14.86448
N         39.77021       48.71682       19.70552
C         40.63633       47.82294       20.45406
C         40.01770       46.43322       20.46644
O         39.64640       46.01222       21.55209
C         42.10674       47.89078       19.98464
C         43.02264       46.94941       20.78805
C         43.04560       47.29577       22.25188
O         42.62542       46.40094       23.16597
O         43.44091       48.39082       22.61856
H         39.02655       48.31764       19.11663
H         40.61663       48.16309       21.51589
H         42.48243       48.93101       20.08806
H         42.18665       47.64085       18.91264
H         44.05803       47.01727       20.39230
H         42.67799       45.90154       20.65502
N         39.79317       45.66221       19.35979
C         40.22030       45.95602       18.00970
H         41.32396       45.93448       17.94709
H         39.85058       45.16046       17.32796
H         39.81959       46.92013       17.64783
H         39.27211       44.78489       19.48414
Ca        39.76232       43.28216       23.43607
O         39.28676       46.30914       25.29623
H         38.57911       46.89629       24.92960
H         39.69512       46.83813       26.02615
O         42.81981       43.61004       22.30105
H         43.33330       43.54946       21.45667
H         43.25367       42.95539       22.90329

Ca 1.0



