%chk=apoCaM-CA-Ng.loop2.water4.frame237.chk
%nprocshared=20
%mem=10GB
%nosave
#b3lyp/svp scf=(tight,noincore,xqc) Test 
#IOP(5/87=12) Density=Current Pop=(MK,readradii) iop(6/33=2) iop(6/42=6)

apoCaM-CA-Ng.loop2.water4.frame237 

   -2  1 
C         36.06684        3.50694       89.67230
C         36.99798        2.84158       90.64279
O         37.96624        3.45540       91.06786
H         35.04607        3.55247       90.10773
H         36.40469        4.53953       89.44192
H         36.03218        2.92289       88.72866
N         36.75107        1.56692       91.04724
C         37.59826        0.85086       91.99357
C         38.99241        0.64715       91.41309
O         39.11460        0.05527       90.34896
C         36.94899       -0.51077       92.34077
C         37.66871       -1.29034       93.41423
O         37.22625       -2.37249       93.76421
O         38.77848       -0.81151       94.00965
H         35.90852        1.09814       90.67686
H         37.64728        1.43936       92.93728
H         36.88193       -1.13556       91.42339
H         35.91590       -0.32501       92.70959
N         40.09506        1.06869       92.09800
C         41.45760        0.79864       91.64848
C         41.81471        1.60873       90.41544
O         41.83181        2.83043       90.48533
C         42.45836        1.10748       92.76705
H         39.95563        1.52269       93.01414
H         41.54452       -0.29118       91.43856
H         42.41523        2.18042       93.05235
H         42.22205        0.49222       93.66180
H         43.48984        0.86059       92.43606
N         42.11218        0.98298       89.24240
C         42.47450        1.70629       88.02689
C         43.88003        2.27401       88.12965
O         44.81433        1.49227       88.25714
C         42.43345        0.76449       86.80217
C         41.08092        0.13685       86.62345
O         40.95943       -1.07761       86.63961
O         39.99610        0.90965       86.44818
H         42.03440       -0.04522       89.20526
H         41.73242        2.51484       87.84860
H         43.19302       -0.04137       86.91628
H         42.67813        1.34385       85.88512
N         44.12459        3.61288       88.03229
C         45.49241        4.10805       87.95474
C         45.58466        5.61416       87.88413
O         46.30980        6.18611       88.68635
H         43.33293        4.27028       87.96275
H         45.96114        3.69123       87.03723
H         46.07355        3.75334       88.83570
N         44.88951        6.32809       86.94936
C         44.98617        7.78428       86.82738
C         44.72265        8.45090       88.15759
O         43.65089        8.27069       88.71703
C         43.97397        8.33069       85.79560
C         44.28392        7.89883       84.38870
N         45.42540        8.30389       83.78435
O         43.48651        7.20302       83.77821
H         44.26044        5.81471       86.31312
H         46.01677        8.04910       86.50575
H         43.98125        9.44306       85.80763
H         42.95319        7.99548       86.08349
H         46.09499        8.91299       84.27741
H         45.63271        8.02580       82.81424
N         45.68284        9.22819       88.73619
C         45.49145        9.86460       90.02397
C         44.41028       10.91551       89.98299
O         43.88999       11.22685       88.91961
H         46.59293        9.35141       88.26644
H         46.43419       10.35916       90.34532
H         45.23573        9.08393       90.77189
N         44.02443       11.51134       91.14274
C         43.01318       12.56424       91.19223
C         41.66525       12.12973       90.61181
O         40.88666       13.00870       90.26419
C         42.85551       13.14027       92.62938
C         42.41716       12.09885       93.67987
O         44.04298       13.77660       93.03807
H         44.49582       11.21192       92.00768
H         43.38103       13.38850       90.54062
H         42.06829       13.92462       92.59910
H         44.70433       13.08133       93.29136
H         41.46117       11.62897       93.39974
H         43.16718       11.29095       93.80249
H         42.28539       12.59216       94.66575
N         41.30654       10.81774       90.49274
C         40.04526       10.36160       89.90675
C         40.32319        9.28984       88.86147
O         40.95153        8.29007       89.18724
C         39.10116        9.82606       91.02821
C         38.64986       10.94952       92.00225
C         37.86189        9.10278       90.46621
C         37.76473       12.04500       91.38852
H         41.93756       10.09593       90.87512
H         39.51348       11.19231       89.39994
H         39.66653        9.07325       91.62250
H         39.53560       11.43642       92.44037
H         38.08092       10.48614       92.83709
H         38.16456        8.19753       89.91058
H         37.20586        8.76048       91.29413
H         37.28200        9.75639       89.78209
H         36.81777       11.62435       90.99407
H         37.50171       12.78313       92.17450
H         38.28317       12.59362       90.57866
N         39.78553        9.38776       87.60979
C         39.82070        8.30137       86.63404
C         39.93714        8.82733       85.19244
O         39.77885        8.05115       84.26390
C         38.52408        7.48254       86.83982
C         38.49155        6.12351       86.19478
O         37.42063        5.33712       86.40757
O         39.42929        5.69609       85.54005
H         39.14959       10.18034       87.42370
H         40.67010        7.61537       86.84998
H         37.64469        8.08388       86.52079
H         38.42172        7.26671       87.92054
N         40.22376       10.13917       84.92726
C         40.24314       10.69940       83.57655
C         38.82478       10.75637       83.01735
O         37.97117       11.31442       83.68726
C         40.87332       12.11614       83.60476
C         40.86721       12.79769       82.24959
C         42.04476       12.89740       81.48845
C         39.67824       13.35351       81.73738
C         42.02431       13.52223       80.23553
C         39.66348       13.97909       80.49037
C         40.83476       14.06108       79.73733
H         40.44934       10.77050       85.70679
H         40.91525       10.08502       82.94230
H         41.92264       11.98258       83.95124
H         40.36844       12.78074       84.33869
H         42.97444       12.48179       81.85570
H         38.75865       13.31530       82.30379
H         42.93084       13.58886       79.64868
H         38.74187       14.40179       80.11088
H         40.81959       14.54582       78.76989
N         38.50481       10.28084       81.77031
C         37.18726       10.39087       81.14809
C         36.04835        9.82543       81.97067
O         35.00551       10.45842       82.06150
C         37.33854        9.57242       79.85871
C         38.77180        9.85383       79.48851
C         39.46662        9.71987       80.83988
H         36.99590       11.45950       80.89907
H         37.28071        8.48229       80.08350
H         36.58677        9.81269       79.07635
H         39.19596        9.21900       78.68245
H         38.82611       10.92091       79.16732
H         39.65874        8.66051       81.11875
H         40.41500       10.29476       80.77653
N         36.18275        8.61914       82.58540
C         35.10733        7.93541       83.30683
C         34.55797        8.72313       84.49514
O         33.55194        8.29254       85.04231
C         35.63068        6.58261       83.82671
C         36.02876        5.60483       82.70590
C         36.87237        4.50939       83.28427
O         36.41123        3.74857       84.29088
O         38.02039        4.35680       82.89657
H         37.10212        8.15844       82.50712
H         34.26530        7.76692       82.59889
H         34.88069        6.07482       84.47375
H         36.51751        6.82184       84.45020
H         36.63406        6.10744       81.92440
H         35.11742        5.19702       82.21926
N         35.14939        9.85937       84.96260
C         34.62849       10.63828       86.06783
H         33.68432       10.22171       86.47662
H         35.38234       10.67238       86.88163
H         34.42831       11.67365       85.71976
H         36.01626       10.19813       84.53715
Ca        37.95917        2.53506       85.38364
O         39.23575        3.49824       88.17930
H         39.41434        2.75777       88.81173
H         39.30572        4.31903       88.72862
O         38.40370        0.46423       83.27861
H         39.30663        0.83986       83.12472
H         38.45480        0.05969       84.18108
O         36.09465        0.76805       86.56904
H         36.45525        0.33035       87.38035
H         35.18884        1.07277       86.82616
O         41.01724        2.94475       84.12789
H         41.31394        2.55010       83.26954
H         41.47775        3.82006       84.17129

Ca 1.0



