%chk=apoCaM-CA-Ng.loop1.water5.frame531.chk
%nprocshared=20
%mem=10GB
%nosave
#b3lyp/svp scf=(tight,noincore,xqc) Test 
#IOP(5/87=12) Density=Current Pop=(MK,readradii) iop(6/33=2) iop(6/42=6)

apoCaM-CA-Ng.loop1.water5.frame531 

   0  1 
C         87.49257       13.95628       18.38576
C         87.48232       13.59367       16.92739
O         88.41368       13.95082       16.22171
H         86.58207       13.58441       18.90346
H         88.38044       13.50902       18.87869
H         87.52748       15.06000       18.49519
N         86.44361       12.87735       16.41186
C         86.29072       12.46793       15.01822
C         87.37502       11.49182       14.57676
O         88.40986       11.38798       15.22054
C         86.18005       13.70146       14.09053
C         85.69757       13.35849       12.70771
O         84.49164       12.78263       12.54002
O         86.37888       13.61901       11.73024
H         85.68280       12.60217       17.05253
H         85.32436       11.91562       14.97774
H         87.16067       14.22271       14.03474
H         85.43831       14.40729       14.52071
N         87.15964       10.70245       13.48285
C         88.07837        9.70795       12.92476
C         88.25805        8.46578       13.79648
O         88.77869        7.48389       13.28445
C         89.43863       10.32745       12.53698
C         89.26764       11.60559       11.70032
C         90.61934       12.26280       11.39868
C         90.48348       13.60898       10.66269
N         89.79899       14.62403       11.47059
H         86.26894       10.81538       12.97803
H         87.59317        9.34216       11.99040
H         90.04129        9.58202       11.97197
H         89.99719       10.58316       13.46199
H         88.66309       12.31598       12.29176
H         88.73206       11.37756       10.75255
H         91.21912       11.56901       10.77044
H         91.17073       12.43738       12.34848
H         89.94697       13.46881        9.69851
H         91.50886       13.97472       10.43622
H         89.83941       15.54219       10.97306
H         88.79360       14.38333       11.60218
H         90.26347       14.72484       12.40237
N         87.85269        8.41491       15.09988
C         87.89113        7.21455       15.91875
C         86.64953        7.22784       16.81212
O         86.53548        8.16687       17.58950
C         89.16005        7.20010       16.79334
C         89.20900        5.90718       17.54637
O         89.28894        4.85403       16.93304
O         89.06454        5.87767       18.88135
H         87.46184        9.24650       15.54672
H         87.94451        6.33359       15.25461
H         89.14899        8.06122       17.49728
H         90.07385        7.28006       16.16493
N         85.63845        6.31575       16.77225
C         85.54011        5.14532       15.92318
C         85.05641        3.97736       16.74041
O         83.92806        3.55841       16.51887
H         84.81896        6.50997       17.36909
H         86.46893        4.87960       15.39213
H         84.76389        5.36802       15.15854
N         85.83203        3.40576       17.71124
C         85.32689        2.33427       18.56878
C         85.34269        2.71762       20.03250
O         85.91566        3.73634       20.38473
C         86.01285        0.98403       18.27851
C         87.46289        0.71993       18.63633
O         87.88188       -0.40377       18.40967
O         88.32526        1.58903       19.20896
H         86.79173        3.75007       17.84394
H         84.25396        2.16570       18.33213
H         85.88738        0.77729       17.19314
H         85.43413        0.20794       18.82457
N         84.66136        1.95848       20.94069
C         84.61833        2.23220       22.36947
C         84.00456        3.56465       22.76481
O         83.98439        3.83577       23.95487
H         84.15941        1.12132       20.60891
H         85.65778        2.19953       22.76299
H         84.03892        1.42882       22.87399
N         83.49632        4.45786       21.86688
C         83.07493        5.80420       22.26662
C         84.27283        6.61338       22.77653
O         85.39425        6.13746       22.68083
C         82.38343        6.53924       21.07976
C         83.31221        6.78561       19.87990
O         81.27728        5.79435       20.64027
H         83.41863        4.18330       20.88059
H         82.32867        5.70889       23.08599
H         82.03564        7.54403       21.41366
H         80.55310        5.93487       21.30461
H         83.69436        5.83750       19.44976
H         82.75596        7.31758       19.07902
H         84.17317        7.41908       20.17348
N         84.11737        7.86786       23.29537
C         85.26414        8.72331       23.62642
C         86.10600        8.23432       24.81477
O         87.10898        8.87531       25.09354
C         84.85393       10.21947       23.83692
C         84.08563       10.45599       25.16345
C         84.09094       10.76087       22.60912
C         83.82400       11.93818       25.44871
H         83.16271        8.24739       23.36129
H         85.92850        8.72669       22.73263
H         85.80289       10.79926       23.90138
H         84.70464       10.08284       26.00746
H         83.12430        9.90157       25.16838
H         83.94893       11.85785       22.68011
H         84.67016       10.56955       21.68131
H         83.09017       10.29406       22.50660
H         83.35758       12.04771       26.44999
H         84.77871       12.50798       25.44264
H         83.13011       12.37670       24.70388
N         85.77971        7.13431       25.55872
C         86.55487        6.69480       26.72501
C         85.66184        6.53385       27.94422
O         84.45904        6.73599       27.85875
C         87.32266        5.37810       26.42051
C         86.42425        4.24528       25.93369
O         88.30700        5.62579       25.45476
H         84.95317        6.57857       25.30267
H         87.32171        7.45095       26.99917
H         87.82357        4.99557       27.33701
H         89.09904        5.98741       25.93254
H         85.61663        4.02807       26.66501
H         85.99008        4.52935       24.96172
H         87.02245        3.32256       25.77993
N         86.21799        6.13135       29.12375
C         85.46327        5.86623       30.33542
C         86.04048        6.68905       31.47758
O         85.31330        7.48026       32.06305
C         85.48186        4.33444       30.61625
C         84.65633        3.96227       31.85323
O         86.79700        3.86229       30.76118
H         87.23218        5.96376       29.16022
H         84.39480        6.14813       30.19817
H         85.02363        3.83890       29.72852
H         86.76097        2.87060       30.74388
H         83.60482        4.29442       31.72733
H         84.65915        2.85879       31.98592
H         85.08319        4.42549       32.76712
N         87.33412        6.51266       31.87536
C         87.91414        7.13023       33.05621
C         89.34449        7.55771       32.76658
O         90.13297        6.72372       32.33892
C         87.88467        6.08002       34.17751
C         88.35844        6.63651       35.52392
C         88.29725        5.54311       36.59382
C         88.74085        6.07809       37.95830
N         88.71093        5.01694       38.96363
H         87.91020        5.80937       31.39423
H         87.29956        7.99450       33.39505
H         88.50396        5.20288       33.88492
H         86.83375        5.73325       34.30050
H         87.70242        7.48557       35.81878
H         89.40366        7.00425       35.43684
H         88.96424        4.70535       36.29297
H         87.25615        5.15885       36.67502
H         88.06210        6.90297       38.27092
H         89.77499        6.48143       37.88199
H         89.01202        5.40907       39.88453
H         87.74142        4.63539       39.05657
H         89.36693        4.24868       38.69177
N         89.76776        8.82803       33.01650
C         91.14404        9.25357       32.77265
C         91.49518        9.15871       31.28845
O         92.42784        8.42896       30.98286
C         91.42056       10.65553       33.36159
C         91.43008       10.62355       34.89950
C         91.64737       11.99418       35.47289
O         92.66074       12.62211       35.20940
O         90.72548       12.53240       36.29392
H         89.09705        9.50105       33.41851
H         91.83394        8.56322       33.31299
H         90.66353       11.38491       33.02245
H         92.42472       10.99965       33.02718
H         92.24864        9.95640       35.25012
H         90.46681       10.22373       35.28053
N         90.83068        9.80421       30.28519
C         89.69181       10.67728       30.46097
H         88.86045       10.13959       30.95945
H         89.97467       11.58411       31.02339
H         89.33164       11.01865       29.46748
H         91.14841        9.64401       29.31613
Ca        88.63232        3.78955       19.57456
O         87.93791        4.46986       23.00250
H         87.27987        4.22506       22.31127
H         87.98016        5.45754       22.95728
O         91.58902        3.26540       19.21397
H         91.57686        4.06542       18.63076
H         91.70614        3.62750       20.12788
O         90.53598        5.36283       21.96346
H         91.32508        5.92349       21.75857
H         90.55067        5.26456       22.94878
O         89.50293        2.16261       22.07763
H         88.70136        1.61682       22.27844
H         90.10857        1.54892       21.59145
O         87.13513        6.69903       20.62836
H         86.52186        7.07605       19.95126
H         87.46678        7.48410       21.13105

Ca 1.0



