%chk=apoCaM-CA-Ng.loop4.water3.frame82.chk
%nprocshared=20
%mem=10GB
%nosave
#b3lyp/svp scf=(tight,noincore,xqc) Test 
#IOP(5/87=12) Density=Current Pop=(MK,readradii) iop(6/33=2) iop(6/42=6)

apoCaM-CA-Ng.loop4.water3.frame82 

   -3  1 
C         53.18775       66.37398       13.09638
C         53.52915       67.54939       12.23448
O         53.84932       68.58344       12.78123
H         52.14873       66.04406       12.89848
H         53.89633       65.54610       12.88708
H         53.27895       66.64623       14.17221
N         53.51348       67.45398       10.87490
C         53.91554       68.52094        9.95623
C         55.37353       68.88276       10.16120
O         55.68865       70.01185       10.49141
C         52.90816       69.70576        9.88165
C         52.65155       70.53284       11.11847
O         53.59094       71.37034       11.60757
O         51.53097       70.54895       11.60351
H         53.25173       66.54668       10.46025
H         53.87520       68.10177        8.92504
H         51.94023       69.26670        9.55282
H         53.23583       70.39958        9.07577
N         56.31588       67.92249        9.92560
C         57.77029       68.06593        9.98688
C         58.26395       69.01287        8.89526
O         58.77453       68.51703        7.89994
C         58.27950       68.36279       11.42515
C         59.82766       68.41650       11.52685
C         57.70893       67.32877       12.41611
C         60.56182       67.13308       11.12188
H         55.97192       66.98959        9.64811
H         58.16573       67.06099        9.71665
H         57.90170       69.35505       11.74518
H         60.09872       68.63739       12.58010
H         60.20966       69.25014       10.89988
H         58.07091       67.53520       13.44198
H         56.60023       67.37798       12.43894
H         57.99908       66.29482       12.13832
H         60.39367       66.89640       10.05199
H         61.65319       67.27556       11.26871
H         60.24773       66.27254       11.74685
N         58.13384       70.36871        8.98328
C         58.39788       71.26430        7.86141
C         59.81538       71.83893        7.88362
O         60.50452       71.62438        6.89553
C         57.28758       72.33711        7.74000
C         55.90921       71.76468        7.50256
O         55.72388       70.56075        7.41374
O         54.86174       72.60140        7.37765
H         57.76495       70.78474        9.84525
H         58.32659       70.68827        6.90892
H         57.52255       73.00348        6.88228
H         57.23238       72.95436        8.65301
N         60.37454       72.56154        8.90158
C         59.72623       72.86410       10.16857
C         60.60786       73.65555       11.12968
O         61.74080       73.95696       10.78089
H         61.34040       72.88795        8.74553
H         59.48179       71.90790       10.66069
H         58.82909       73.45299        9.96041
N         60.20682       74.02980       12.38643
C         58.90480       73.80128       13.01622
C         58.57851       72.31228       13.07414
O         57.62185       71.89178       12.43981
C         57.81373       74.69361       12.38173
C         56.52429       74.70341       13.16465
O         56.35962       73.93919       14.26376
O         55.61709       75.43565       12.80663
H         60.90347       74.52558       12.96541
H         58.95918       74.18011       14.06071
H         57.58226       74.40610       11.34421
H         58.19656       75.73775       12.37552
N         59.32652       71.42739       13.79905
C         60.42771       71.80913       14.66850
C         61.73983       71.25935       14.19886
O         61.78895       70.48530       13.25302
H         59.08354       70.42666       13.75731
H         60.22455       71.45772       15.70233
H         60.55205       72.90174       14.72194
N         62.87998       71.68721       14.80611
C         64.19728       71.24486       14.37893
C         64.46391       69.81383       14.83925
O         65.43049       69.22066       14.38089
C         65.25870       72.23736       14.90671
C         66.63787       72.07939       14.24543
C         67.63082       73.12271       14.70384
N         68.87432       73.14238       14.17238
O         67.32340       73.95477       15.54607
H         62.80168       72.39879       15.55014
H         64.21501       71.30300       13.26710
H         65.33534       72.15600       16.01420
H         64.90666       73.26442       14.65756
H         66.51375       72.18741       13.14535
H         67.06171       71.07985       14.46405
H         69.14965       72.45425       13.45641
H         69.56154       73.84983       14.47214
N         63.66992       69.21060       15.77840
C         63.89345       67.86254       16.29031
C         64.35370       67.88875       17.74536
O         64.65087       66.82857       18.27509
C         62.60919       66.99125       16.13626
C         62.16395       66.91183       14.66962
C         61.43648       67.48611       17.00847
H         62.89297       69.74204       16.19393
H         64.71262       67.37362       15.71772
H         62.85483       65.95835       16.46987
H         61.88074       67.91521       14.28843
H         62.98216       66.50488       14.03960
H         61.28272       66.24176       14.57235
H         61.10281       68.50263       16.71613
H         60.57008       66.79962       16.90357
H         61.72051       67.49836       18.08176
N         64.42932       69.05552       18.45448
C         64.85963       69.13277       19.84404
C         63.74177       69.65967       20.73536
O         64.00155       69.84177       21.91900
C         66.04740       70.11966       19.94299
C         67.20070       69.77849       19.03587
N         67.89337       68.62793       19.18820
O         67.52444       70.56654       18.15905
H         64.17378       69.94758       18.01136
H         65.17387       68.13714       20.22628
H         66.41968       70.16555       20.99032
H         65.68095       71.13360       19.66840
H         67.64622       67.95655       19.92865
H         68.68841       68.41530       18.56721
N         62.49351       69.96217       20.26122
C         61.52896       70.72231       21.04966
C         60.13070       70.72398       20.45207
O         59.96853       71.05211       19.28356
C         61.92781       72.22197       21.06198
C         63.13545       72.58266       21.87624
C         64.28356       73.09873       21.25625
C         63.10170       72.45631       23.27399
C         65.38486       73.48259       22.02461
C         64.19967       72.85132       24.04167
C         65.34507       73.36866       23.41846
O         66.40627       73.76720       24.14739
H         62.24280       69.73575       19.28733
H         61.46826       70.32116       22.08596
H         61.09640       72.83067       21.48492
H         62.06117       72.54593       20.00459
H         64.32497       73.20789       20.17949
H         62.21725       72.07288       23.76837
H         66.26460       73.88073       21.53560
H         64.15444       72.76394       25.11973
H         66.40859       73.72775       25.11432
N         59.07040       70.60560       21.30650
C         57.70370       71.06001       21.04906
C         56.85968       70.17833       20.14614
O         55.64538       70.32629       20.19381
C         57.73361       72.54279       20.59845
C         56.37249       73.25066       20.58692
C         56.48727       74.70024       20.18524
O         57.56561       75.19854       19.89683
O         55.37800       75.46052       20.13912
H         59.27388       70.36964       22.29103
H         57.19606       71.02012       22.04046
H         58.17250       72.61789       19.58152
H         58.39155       73.09438       21.30712
H         55.93026       73.19953       21.60446
H         55.69076       72.75785       19.86555
N         57.38322       69.23998       19.31102
C         56.52400       68.39959       18.48464
C         55.91304       67.25721       19.29083
O         55.14624       66.49289       18.71994
C         57.30145       67.86126       17.26665
C         57.89458       68.95630       16.34961
C         56.85073       69.83867       15.71276
O         56.20139       70.62816       16.37901
O         56.61298       69.72907       14.39435
H         58.40198       69.13303       19.23093
H         55.68241       69.00441       18.08666
H         56.62084       67.23180       16.64982
H         58.13062       67.21488       17.62607
H         58.43886       68.42552       15.54168
H         58.63497       69.58608       16.88436
N         56.18664       67.07315       20.61639
C         55.60379       65.99143       21.37948
H         54.49564       66.06471       21.36188
H         55.92162       65.01577       20.95553
H         55.94492       66.04807       22.43565
H         56.82191       67.70832       21.11836
Ca        54.96052       70.83046       13.32349
O         52.71087       70.79751       15.35879
H         53.58347       71.04223       15.75731
H         52.52816       69.88758       15.70236
O         54.89110       73.65653       10.57233
H         53.91359       73.67735       10.41474
H         55.18652       72.78257       10.21370
O         52.88703       73.45565       13.72609
H         53.40939       74.19303       13.32413
H         52.97791       73.59235       14.70226

Ca 1.0



