%chk=apoCaM-CA-Ng.loop2.water4.frame116.chk
%nprocshared=20
%mem=10GB
%nosave
#b3lyp/svp scf=(tight,noincore,xqc) Test 
#IOP(5/87=12) Density=Current Pop=(MK,readradii) iop(6/33=2) iop(6/42=6)

apoCaM-CA-Ng.loop2.water4.frame116 

   -2  1 
C         45.56859       49.86518       -1.94955
C         46.42624       48.87898       -2.68974
O         47.56266       49.21187       -2.99462
H         44.56469       49.44708       -1.72692
H         46.05809       50.14706       -0.99434
H         45.43812       50.77786       -2.56981
N         45.93457       47.65498       -3.04474
C         46.70326       46.67618       -3.81517
C         46.22026       46.58539       -5.25869
O         47.01160       46.20987       -6.11019
C         46.73345       45.29426       -3.11971
C         45.40044       44.58890       -2.98937
O         44.36543       45.08261       -3.40646
O         45.35553       43.37711       -2.40497
H         44.96166       47.43458       -2.78860
H         47.75931       47.02227       -3.87712
H         47.15765       45.41822       -2.09988
H         47.41026       44.62506       -3.69330
N         44.94728       46.93813       -5.60635
C         44.40943       47.00643       -6.96492
C         45.03771       48.17690       -7.77611
O         45.43292       49.14351       -6.84114
C         44.44501       45.63453       -7.65349
H         44.29180       47.20596       -4.86307
H         43.33985       47.29041       -6.85985
H         45.48542       45.27761       -7.80310
H         43.91879       44.88714       -7.02360
H         43.94669       45.68866       -8.64268
N         46.19697       47.76125       -8.57969
C         46.90704       48.88121       -9.22786
C         48.36987       48.51682       -9.26780
O         48.99964       48.57535      -10.31672
C         46.35478       49.20839      -10.64116
C         44.90684       49.60378      -10.63391
O         44.50668       50.70261       -9.96958
O         44.08914       48.94609      -11.25738
H         45.92933       47.05208       -9.30043
H         46.85145       49.79644       -8.60226
H         46.48872       48.32081      -11.29888
H         46.93465       50.05057      -11.08009
N         48.98220       48.11565       -8.11846
C         50.39479       47.81848       -8.05343
C         51.14145       49.09482       -8.27230
O         51.88905       49.20356       -9.23358
H         48.43176       48.03505       -7.25121
H         50.65646       47.04299       -8.80655
H         50.65408       47.42945       -7.04478
N         50.95094       50.12508       -7.40356
C         51.56504       51.42923       -7.57069
C         52.58050       51.67462       -6.48652
O         52.66130       50.91378       -5.53035
C         50.47334       52.52129       -7.53958
C         49.55416       52.42784       -8.73081
N         48.22719       52.21168       -8.57865
O         50.01675       52.56585       -9.85300
H         50.34180       49.97607       -6.58185
H         52.12232       51.47839       -8.53059
H         50.93230       53.53242       -7.55108
H         49.89782       52.42493       -6.59067
H         47.81020       52.09431       -7.64541
H         47.61126       52.16020       -9.40371
N         53.42521       52.73388       -6.60820
C         54.40983       53.08787       -5.60578
C         54.14450       54.47853       -5.10884
O         53.29096       55.16755       -5.65608
H         53.35999       53.32721       -7.45052
H         55.43185       53.03523       -6.03749
H         54.36156       52.39334       -4.74060
N         54.82055       54.95543       -4.02853
C         54.55295       56.28583       -3.49316
C         53.09444       56.44688       -3.05340
O         52.69138       57.57609       -2.82423
C         55.52792       56.66758       -2.34698
C         55.38141       55.79706       -1.08692
O         56.85884       56.66474       -2.80520
H         55.52766       54.34737       -3.59017
H         54.72868       57.00450       -4.32571
H         55.29770       57.71130       -2.04114
H         57.15856       55.72349       -2.89760
H         55.59944       54.73019       -1.29821
H         56.08431       56.15299       -0.30452
H         54.35479       55.87368       -0.68180
N         52.25222       55.37505       -2.91418
C         50.83275       55.48711       -2.59415
C         49.99080       54.78150       -3.64827
O         50.20673       53.60902       -3.91905
C         50.50190       54.93420       -1.17597
C         51.00705       53.48455       -0.93700
C         51.04141       55.90555       -0.11156
C         50.47956       52.86910        0.35912
H         52.62169       54.42249       -3.03543
H         50.51592       56.55185       -2.58435
H         49.39157       54.94443       -1.08279
H         52.11829       53.46292       -0.92954
H         50.65553       52.81547       -1.74398
H         50.64099       56.92727       -0.28975
H         50.71834       55.61381        0.90615
H         52.14610       55.95030       -0.14195
H         50.85066       51.82635        0.44708
H         50.82372       53.42654        1.25159
H         49.36858       52.84624        0.34152
N         48.96823       55.44890       -4.25475
C         48.01084       54.81381       -5.15680
C         47.14499       55.89318       -5.78228
O         47.15339       56.03572       -6.99801
C         47.16101       53.78307       -4.36858
C         46.42820       52.80606       -5.24200
O         46.72205       51.62256       -5.16296
O         45.45486       53.16836       -6.10020
H         48.85003       56.44418       -4.03189
H         48.58064       54.29574       -5.95884
H         46.46139       54.28466       -3.66817
H         47.83806       53.16621       -3.74286
N         46.43019       56.74360       -4.98868
C         45.76057       57.93926       -5.48556
C         44.57318       58.28747       -4.59282
O         44.75220       58.37541       -3.38411
C         46.78723       59.08820       -5.66096
C         47.57930       59.45018       -4.42224
C         47.00851       60.18837       -3.37001
C         48.92764       59.06348       -4.32576
C         47.76596       60.50703       -2.23680
C         49.67581       59.37640       -3.18989
C         49.09677       60.09393       -2.14391
H         46.49901       56.62322       -3.96562
H         45.38988       57.73476       -6.50968
H         46.30437       59.99834       -6.07807
H         47.50126       58.73613       -6.43791
H         45.98424       60.53015       -3.42739
H         49.39915       58.50315       -5.12409
H         47.32271       61.07623       -1.43032
H         50.70522       59.06254       -3.12188
H         49.68272       60.33471       -1.26624
N         43.31434       58.47639       -5.09646
C         42.12605       58.73712       -4.29366
C         41.91914       57.72229       -3.18360
O         41.70468       58.10329       -2.04328
C         40.98013       58.62210       -5.31311
C         41.62834       59.15340       -6.56591
C         42.99574       58.48233       -6.51319
H         42.18807       59.77003       -3.88269
H         40.75137       57.55224       -5.52545
H         40.03817       59.12241       -5.00585
H         41.06966       58.98357       -7.51054
H         41.76818       60.24963       -6.42292
H         42.97656       57.43199       -6.87925
H         43.69567       59.10133       -7.11584
N         41.98142       56.39560       -3.47649
C         41.75329       55.31558       -2.52162
C         42.70880       55.41273       -1.34810
O         42.24692       55.36962       -0.21500
C         41.87586       53.95773       -3.24958
C         40.73583       53.79718       -4.28129
C         40.90712       52.57343       -5.12473
O         41.87184       52.47530       -5.86639
O         39.97663       51.60052       -5.10592
H         42.22031       56.14395       -4.44677
H         40.71645       55.37771       -2.11959
H         41.79939       53.12061       -2.52018
H         42.87157       53.89924       -3.74351
H         40.68870       54.65812       -4.97832
H         39.76668       53.74908       -3.73752
N         44.04414       55.59736       -1.53078
C         44.95071       55.73947       -0.41016
H         45.97677       55.95908       -0.77269
H         44.62254       56.57830        0.24315
H         44.96917       54.80120        0.18369
H         44.42276       55.67942       -2.48602
Ca        44.78722       51.30127       -7.18494
O         42.26583       52.95249       -9.16023
H         41.97456       53.86395       -8.90534
H         41.80496       52.77480      -10.01843
O         41.79775       49.97451       -7.56257
H         41.99656       49.18621       -8.12716
H         41.01458       49.70208       -7.02141
O         43.49967       50.18812       -4.61795
H         43.30278       49.22086       -4.58446
H         42.68052       50.60668       -4.25709
O         45.24204       53.79212       -9.13804
H         45.81938       54.22087       -8.45885
H         45.73765       53.90539       -9.98703

Ca 1.0



