%chk=apoCaM-CA-Ng.loop3.water6.frame1086.chk
%nprocshared=20
%mem=10GB
%nosave
#b3lyp/svp scf=(tight,noincore,xqc) Test 
#IOP(5/87=12) Density=Current Pop=(MK,readradii) iop(6/33=2) iop(6/42=6)

apoCaM-CA-Ng.loop3.water6.frame1086 

   0  1 
C         51.46744       79.58971       22.21622
C         51.91471       80.68492       21.29454
O         52.10259       81.80434       21.74970
H         50.48272       79.20178       21.87841
H         52.20879       78.76464       22.20865
H         51.35919       79.96863       23.25539
N         52.07605       80.43063       19.96462
C         52.44651       81.45651       18.98962
C         51.27447       81.82765       18.07985
O         51.38273       82.81668       17.36911
C         53.73110       81.05332       18.23400
C         53.63162       79.80139       17.39656
O         54.62397       79.39762       16.81190
O         52.47616       79.11989       17.27305
H         51.88642       79.47243       19.63583
H         52.68583       82.39797       19.53105
H         54.53157       80.89619       18.99060
H         54.04684       81.89026       17.57451
N         50.09475       81.13924       18.12082
C         48.85418       81.59328       17.49148
C         48.97974       81.71444       15.98501
O         49.19357       80.71904       15.30698
C         47.69819       80.64389       17.86450
C         47.39707       80.70230       19.37844
C         46.45566       79.59231       19.85512
C         45.07515       79.62033       19.19115
N         44.22949       78.55884       19.73538
H         50.04974       80.28496       18.68890
H         48.60919       82.59578       17.90717
H         47.98168       79.61078       17.56266
H         46.77999       80.93548       17.31054
H         46.98199       81.70274       19.63043
H         48.32623       80.57412       19.97010
H         46.32814       79.70819       20.95386
H         46.93673       78.60756       19.66530
H         45.17790       79.46990       18.09483
H         44.59451       80.60679       19.37268
H         44.09504       78.69902       20.76328
H         43.29754       78.58547       19.26345
H         44.67042       77.62553       19.56376
N         48.88955       82.95030       15.41203
C         49.10005       83.22632       13.99604
C         50.50177       83.78764       13.85702
O         50.70535       84.92234       13.45072
C         47.96328       84.10630       13.41133
C         47.75176       85.46291       14.04063
O         46.87188       86.18790       13.60618
O         48.50336       85.89504       15.06823
H         48.77488       83.75487       16.04218
H         49.08970       82.28307       13.40528
H         47.00848       83.54394       13.50096
H         48.16598       84.26170       12.32902
N         51.53358       82.97468       14.20905
C         52.93160       83.37806       14.25527
C         53.83883       82.17226       14.48427
O         53.35665       81.04906       14.42851
H         51.28392       82.01454       14.48174
H         53.04108       84.12765       15.06556
H         53.22972       83.83514       13.28646
N         55.18277       82.26611       14.67852
C         55.95766       83.48323       14.87765
C         56.93156       83.21724       16.02846
O         57.71341       82.28327       15.90502
C         56.70671       83.80939       13.57197
C         57.60053       85.02233       13.69506
N         57.36865       86.13499       12.96119
O         58.55665       84.99437       14.45564
H         55.70466       81.37457       14.69682
H         55.29581       84.34638       15.08867
H         55.94088       83.98541       12.78387
H         57.32394       82.94237       13.25262
H         56.57082       86.18771       12.31198
H         57.99164       86.95200       13.04671
N         56.97658       83.94003       17.18326
C         56.14060       85.09727       17.45544
C         56.32788       85.64032       18.86246
O         57.06234       85.07310       19.65744
H         57.66019       83.63471       17.89232
H         55.07093       84.81265       17.35837
H         56.37893       85.89488       16.71942
N         55.61688       86.73820       19.24356
C         55.61571       87.26114       20.61384
C         54.53933       88.33461       20.77302
O         54.03487       88.85045       19.78570
C         57.01125       87.82137       21.01115
C         57.13041       88.18623       22.47611
C         57.35201       89.51771       22.86920
C         57.03973       87.18954       23.46492
C         57.47231       89.84576       24.22440
C         57.16443       87.51962       24.81878
C         57.38042       88.85053       25.20293
O         57.50310       89.18369       26.50424
H         54.99820       87.15233       18.53238
H         55.33423       86.40929       21.27117
H         57.22218       88.70401       20.36816
H         57.81045       87.07953       20.81171
H         57.42953       90.30388       22.12935
H         56.87929       86.15538       23.18786
H         57.63973       90.87542       24.51494
H         57.09556       86.74044       25.56790
H         57.44989       88.52601       27.21266
N         54.09448       88.68119       22.01298
C         53.02500       89.65989       22.21225
C         53.44081       91.05278       21.74784
O         54.58966       91.24762       21.37188
C         52.50813       89.64213       23.68826
C         51.90623       88.26675       24.09001
C         53.60166       90.03735       24.70036
C         50.70918       87.84118       23.23267
H         54.48587       88.18034       22.81972
H         52.17612       89.37783       21.55832
H         51.69167       90.38939       23.78388
H         51.54676       88.33335       25.14000
H         52.67627       87.46721       24.04852
H         54.01273       91.04069       24.46644
H         53.17275       90.07458       25.72483
H         54.43525       89.30643       24.71804
H         51.00153       87.65704       22.17927
H         50.29309       86.88946       23.62415
H         49.91480       88.61671       23.26657
N         52.52855       92.06954       21.72589
C         52.82830       93.41380       21.23668
C         51.85487       93.83656       20.14228
O         50.89136       93.12869       19.88248
C         52.77499       94.39800       22.41304
O         51.49980       94.38442       22.99837
H         51.57428       91.88540       22.07162
H         53.85293       93.44840       20.80626
H         53.01576       95.42794       22.07223
H         53.54276       94.07961       23.15579
H         51.60978       94.72350       23.92424
N         52.05857       95.00851       19.46377
C         51.17738       95.55249       18.42876
C         49.83660       96.03342       18.97122
O         49.01577       96.46502       18.17327
C         51.00439       94.56876       17.25946
H         52.90390       95.55628       19.68480
H         51.66590       96.45771       18.00361
H         51.99895       94.29062       16.85190
H         50.46328       93.64926       17.55698
H         50.42376       95.04914       16.44218
N         49.55575       96.04323       20.30907
C         48.30807       96.52883       20.88082
C         47.14331       95.69159       20.39728
O         46.20289       96.21368       19.81330
C         48.12559       98.03540       20.63558
H         50.25582       95.70612       20.98143
H         48.36165       96.40316       21.98643
H         48.99863       98.58914       21.04220
H         48.01996       98.27407       19.55865
H         47.21538       98.39383       21.16374
N         47.13428       94.36090       20.67830
C         46.01147       93.48398       20.38608
C         45.25628       93.25570       21.67426
O         44.06587       93.53409       21.71555
C         46.48126       92.14526       19.78500
C         47.19137       92.32120       18.43780
C         47.54207       90.98611       17.84726
O         48.28687       90.22338       18.44253
O         47.03549       90.62769       16.65183
H         47.92431       93.97541       21.21878
H         45.31038       93.95550       19.65953
H         45.58462       91.50426       19.62695
H         47.16071       91.62418       20.49534
H         48.11991       92.91688       18.56797
H         46.51949       92.85819       17.73358
N         45.90083       92.79933       22.78558
C         45.25127       92.61854       24.06611
H         44.16477       92.84200       24.02563
H         45.38618       91.56977       24.39954
H         45.71952       93.29803       24.80962
H         46.91051       92.59795       22.74104
Ca        47.58021       88.64234       15.72678
O         49.47615       87.40271       17.76632
H         50.19926       87.84375       18.27889
H         49.82766       86.49965       17.56377
O         50.70038       87.90319       14.39948
H         50.72342       87.10083       14.97718
H         51.57489       88.33769       14.55827
O         45.96251       86.96294       17.56074
H         45.03444       86.75628       17.28481
H         45.86361       87.58688       18.32329
O         50.12196       90.39115       15.95789
H         50.24724       91.12937       15.31061
H         50.57324       90.70060       16.78280
O         48.41511       89.56616       13.01350
H         48.92842       90.31911       12.62699
H         48.19904       88.98575       12.24110
O         45.22726       89.34048       13.91725
H         45.32467       89.99051       13.17706
H         45.39649       88.46047       13.49684

Ca 1.0



