%chk=apoCaM-CA-Ng.loop3.water2.frame851.chk
%nprocshared=20
%mem=10GB
%nosave
#b3lyp/svp scf=(tight,noincore,xqc) Test 
#IOP(5/87=12) Density=Current Pop=(MK,readradii) iop(6/33=2) iop(6/42=6)

apoCaM-CA-Ng.loop3.water2.frame851 

   0  1 
C         84.38783       67.50586       76.49220
C         84.49794       68.49514       75.37171
O         84.34359       68.09069       74.22884
H         83.37963       67.03934       76.46724
H         85.15457       66.71306       76.36653
H         84.52886       67.99126       77.47961
N         84.76365       69.81185       75.62012
C         84.82661       70.82083       74.57089
C         86.23878       71.37692       74.48382
O         86.72153       71.96346       75.44256
C         83.76176       71.90375       74.84560
C         83.57721       72.89994       73.73233
O         82.64404       73.86155       73.85479
O         84.24291       72.84210       72.71346
H         84.91579       70.11558       76.59423
H         84.57114       70.35806       73.60107
H         84.00815       72.44128       75.78615
H         82.78184       71.40052       74.98292
N         86.97870       71.16508       73.35727
C         88.37437       71.55916       73.20601
C         88.53581       73.07655       73.12711
O         89.64188       73.55170       73.34187
C         88.94889       70.85527       71.95162
C         90.47928       70.85994       71.82718
C         90.89161       70.06042       70.57808
C         92.41293       69.91785       70.45305
N         92.76373       69.15953       69.25054
H         86.55183       70.62581       72.59830
H         88.91134       71.16569       74.09885
H         88.48048       71.28883       71.03996
H         88.65315       69.78291       72.01104
H         90.90973       70.37383       72.73067
H         90.87022       71.89592       71.75287
H         90.49123       70.56883       69.67347
H         90.45378       69.03864       70.63157
H         92.80707       69.38543       71.34759
H         92.88309       70.92412       70.40417
H         92.42508       69.66147       68.39749
H         93.80303       69.06162       69.19464
H         92.33743       68.20455       69.28642
N         87.48274       73.89521       72.80928
C         87.56229       75.35529       72.77039
C         86.60442       76.02158       73.76509
O         86.62536       77.24149       73.85841
C         87.29588       75.89422       71.34433
C         85.88344       75.67130       70.84903
O         85.12793       76.62279       70.74008
O         85.48980       74.46825       70.38540
H         86.58108       73.46753       72.57389
H         88.58920       75.67854       73.05106
H         88.02117       75.47175       70.61572
H         87.48126       76.99132       71.37919
N         85.74929       75.30140       74.54852
C         84.86083       75.89440       75.53730
C         83.70811       76.72754       74.99338
O         82.96322       77.23305       75.82081
H         85.76400       74.27675       74.50608
H         85.46641       76.51401       76.23384
H         84.40198       75.07421       76.13114
N         83.47755       76.92959       73.66038
C         82.38156       77.76681       73.16299
C         81.49436       77.03494       72.17180
O         81.98403       76.21256       71.41054
C         82.93884       79.01075       72.44295
C         83.76877       79.87858       73.35166
N         85.05933       80.15460       73.05270
O         83.26570       80.35246       74.35955
H         84.11094       76.50732       72.97276
H         81.74343       78.13055       73.99806
H         82.09179       79.62828       72.06852
H         83.53856       78.69250       71.56245
H         85.49923       79.77397       72.20202
H         85.62055       80.75898       73.67059
N         80.20180       77.44360       72.00764
C         79.36324       77.02168       70.89898
C         79.06460       75.54652       70.89456
O         78.40289       75.06620       71.80394
H         79.82311       78.16697       72.63808
H         79.86799       77.31587       69.95405
H         78.39437       77.56658       70.93576
N         79.51887       74.76976       69.87051
C         79.21018       73.35752       69.72507
C         80.45251       72.50551       70.06418
O         81.50043       72.71421       69.15461
C         78.70446       73.07421       68.28444
C         77.30752       73.57832       68.02039
C         76.21396       72.96236       68.65441
C         77.07217       74.61849       67.10675
C         74.90796       73.37433       68.37389
C         75.76414       75.03770       66.83648
C         74.67858       74.41474       67.46279
O         73.42365       74.81743       67.17655
H         80.12717       75.19931       69.15660
H         78.43516       73.04979       70.46130
H         78.67453       71.98350       68.07551
H         79.43209       73.51142       67.56559
H         76.37152       72.14506       69.34764
H         77.89770       75.10319       66.60139
H         74.07572       72.87818       68.85794
H         75.59291       75.84090       66.13092
H         72.64562       74.40232       67.57609
N         80.09539       71.07549       70.02035
C         80.86630       70.16537       70.88368
C         82.34356       70.23754       70.55381
O         82.98743       71.20903       70.91581
C         80.60465       70.37286       72.41050
C         81.40316       69.36379       73.28088
C         79.10796       70.31222       72.76578
C         81.08728       67.88480       73.03214
H         79.07366       70.89779       70.15292
H         80.50395       69.15148       70.61316
H         80.95787       71.38998       72.69308
H         81.21582       69.58520       74.35378
H         82.48412       69.51235       73.09978
H         78.54748       71.13266       72.27423
H         78.65976       69.34424       72.46119
H         78.97032       70.44738       73.85958
H         80.02145       67.66101       73.23746
H         81.33594       67.58955       71.99261
H         81.70476       67.26080       73.71137
N         82.94087       69.24840       69.83490
C         84.35697       69.30859       69.47013
C         84.79496       68.35746       68.36423
O         85.91001       68.53442       67.89042
C         85.22939       69.07296       70.70599
O         85.03230       67.77160       71.18906
H         82.32630       68.50037       69.50700
H         84.54385       70.32787       69.06414
H         84.93350       69.79479       71.48113
H         86.30145       69.22709       70.44294
H         85.73693       67.61856       71.87099
N         84.02307       67.33544       67.89157
C         84.45769       66.48859       66.79178
C         84.54485       67.30203       65.49990
O         84.00794       68.40181       65.46984
C         83.45933       65.33894       66.63836
H         83.11894       67.11563       68.31797
H         85.45412       66.07487       67.06014
H         83.40448       64.75849       67.58401
H         82.44789       65.73425       66.40299
H         83.76197       64.65349       65.84474
N         85.23112       66.89366       64.39108
C         86.06921       65.70498       64.31218
C         86.08969       65.15683       62.88718
O         86.45427       65.91225       61.99602
C         87.50182       66.09005       64.70305
H         85.29418       67.56960       63.61250
H         85.75154       64.94642       65.04146
H         87.52597       66.48556       65.74059
H         88.16327       65.19820       64.65523
H         87.90470       66.87223       64.02355
N         85.80212       63.86021       62.55552
C         85.38527       62.82425       63.49248
C         83.94137       62.96505       63.95590
O         83.55658       62.22083       64.84819
C         85.62062       61.39323       62.94190
C         84.69517       60.84084       61.83119
C         84.89391       61.40274       60.44807
O         84.47417       62.64205       60.13469
O         85.35568       60.69162       59.56873
H         85.99681       63.59370       61.58455
H         86.06215       62.89396       64.37149
H         85.46773       60.71300       63.81026
H         86.68318       61.28016       62.63571
H         83.62531       60.92303       62.11784
H         84.93030       59.75505       61.77109
N         83.07725       63.86574       63.40039
C         81.69694       64.00775       63.82843
H         81.01982       63.78144       62.97896
H         81.43695       63.33013       64.66974
H         81.51800       65.05160       64.16032
H         83.38920       64.47629       62.63288
Ca        83.31034       73.83951       70.05847
O         83.09723       76.37295       68.28219
H         83.95665       76.11830       67.86005
H         82.44568       75.71327       67.93408
O         84.13505       72.75973       67.40950
H         85.02705       72.34867       67.54302
H         83.50268       71.99838       67.45334

Ca 1.0



