%chk=apoCaM-CA-Ng.loop1.water3.frame1036.chk
%nprocshared=20
%mem=10GB
%nosave
#b3lyp/svp scf=(tight,noincore,xqc) Test 
#IOP(5/87=12) Density=Current Pop=(MK,readradii) iop(6/33=2) iop(6/42=6)

apoCaM-CA-Ng.loop1.water3.frame1036 

   0  1 
C         12.58025       28.54412       60.73933
C         12.44046       29.30449       62.02031
O         11.45661       30.01277       62.18041
H         11.72063       28.75439       60.06615
H         13.51584       28.84960       60.22599
H         12.61023       27.45677       60.95482
N         13.40983       29.22364       62.97713
C         13.34417       29.96756       64.22771
C         14.42208       31.02736       64.23713
O         15.20688       31.11145       65.17290
C         13.43383       29.01306       65.43447
C         12.30972       28.01710       65.44019
O         12.57731       26.69872       65.38095
O         11.15119       28.39588       65.50960
H         14.24177       28.64069       62.79673
H         12.38916       30.51845       64.29934
H         13.38652       29.59706       66.37983
H         14.40587       28.47305       65.40472
N         14.49935       31.89689       63.19220
C         15.44112       33.00384       63.15592
C         15.06058       34.02684       64.21915
O         15.91140       34.31381       65.04945
C         15.59308       33.60774       61.73507
C         15.94263       32.55607       60.65192
C         17.20858       31.73657       60.96014
C         17.50125       30.71963       59.84926
N         18.68436       29.92156       60.17313
H         13.85820       31.76096       62.39749
H         16.45314       32.61837       63.40556
H         16.40219       34.36988       61.76923
H         14.67675       34.12946       61.40210
H         16.08132       33.08970       59.68658
H         15.09034       31.85592       60.52272
H         17.06763       31.16237       61.89927
H         18.07566       32.42201       61.07746
H         17.66603       31.25244       58.88704
H         16.62765       30.03950       59.73077
H         19.52115       30.54096       60.27238
H         18.53017       29.39386       61.06347
H         18.85821       29.23613       59.40306
N         13.80844       34.56703       64.36234
C         12.64451       34.30836       63.51117
C         11.68306       33.34919       64.20921
O         11.93629       32.97817       65.34782
C         11.98298       35.65613       63.13177
C         11.36663       36.30237       64.34227
O         10.37529       35.64225       64.96173
O         11.79080       37.35338       64.78573
H         13.65562       35.16483       65.19028
H         12.94332       33.81075       62.57976
H         11.18225       35.49665       62.37976
H         12.75164       36.32034       62.67807
N         10.56771       32.87986       63.57483
C          9.70657       31.86961       64.17878
C          8.57880       32.44931       64.99713
O          8.35148       33.64559       64.97061
H         10.39865       33.14850       62.59370
H         10.31092       31.19434       64.81718
H          9.25723       31.23665       63.38416
N          7.83768       31.62147       65.78528
C          6.68311       32.04545       66.58339
C          5.53247       31.05766       66.37073
O          5.76481       30.02099       65.76313
C          7.12908       32.11036       68.06718
C          8.14025       33.20996       68.21799
O          7.77768       34.48097       67.94703
O          9.30290       32.94869       68.48115
H          8.14224       30.63767       65.85815
H          6.34036       33.04892       66.25392
H          7.56530       31.12887       68.35853
H          6.31049       32.32640       68.76952
N          4.25709       31.25044       66.82461
C          3.73111       32.44638       67.46062
C          3.58849       33.57832       66.47624
O          2.87232       33.40839       65.49906
H          3.58396       30.48065       66.68073
H          4.31013       32.72619       68.35321
H          2.70221       32.22699       67.82060
N          4.21116       34.77454       66.68231
C          4.02983       35.93072       65.80517
C          5.32006       36.24889       65.07048
O          6.38552       35.87019       65.53356
C          3.47686       37.11926       66.62820
C          3.20242       38.36732       65.78399
O          4.37160       37.44336       67.66059
H          4.83109       34.87379       67.50130
H          3.27788       35.68775       65.02227
H          2.50803       36.77498       67.06418
H          3.83554       37.84223       68.39544
H          4.14452       38.76967       65.35609
H          2.49254       38.13075       64.96385
H          2.75216       39.15673       66.42257
N          5.26217       36.83567       63.83511
C          6.39813       37.04146       62.93805
C          7.37174       38.07962       63.47473
O          7.81908       37.97447       64.60801
C          7.11756       35.70445       62.59181
C          6.13670       34.57692       62.16638
C          8.20691       35.91406       61.52302
C          5.28758       34.88609       60.92989
H          4.33439       37.09098       63.46345
H          5.99346       37.43159       61.97838
H          7.63734       35.34858       63.49487
H          5.44643       34.35221       63.00731
H          6.71910       33.64965       61.97273
H          7.77576       36.30757       60.57959
H          8.97217       36.63515       61.87767
H          8.72535       34.95483       61.31139
H          5.92325       35.06245       60.03920
H          4.62890       34.01845       60.71454
H          4.63863       35.76877       61.10345
N          7.81294       39.07492       62.65209
C          8.81829       40.05038       63.06484
C          8.26498       41.09143       64.02695
O          9.04909       41.86364       64.56219
C          9.43469       40.76977       61.83191
C          8.43143       41.66114       61.07978
O          9.95447       39.82217       60.93501
H          7.48881       39.07065       61.67436
H          9.64195       39.49003       63.56011
H         10.25644       41.44294       62.17314
H         10.81449       39.50479       61.31572
H          8.93837       42.15323       60.22341
H          7.57665       41.07668       60.68308
H          8.03585       42.45935       61.74270
N          6.92258       41.24876       64.20756
C          6.35797       42.35043       64.97570
C          6.70536       42.20981       66.44303
O          6.27235       41.24620       67.05911
C          4.82172       42.40902       64.75855
C          4.15166       43.53823       65.54200
O          4.55608       42.61298       63.39202
H          6.27548       40.62149       63.70916
H          6.77853       43.30223       64.57882
H          4.35762       41.45433       65.10729
H          4.31073       41.73561       62.99785
H          4.26526       43.37324       66.63160
H          4.58937       44.52051       65.26308
H          3.06406       43.55362       65.31785
N          7.47416       43.15335       67.07012
C          7.76726       43.14256       68.50155
C          8.48006       41.85340       68.86373
O          7.94776       41.04839       69.61642
C          6.46859       43.37313       69.31047
C          5.80552       44.71402       68.93358
C          4.43399       44.91570       69.59241
C          4.50763       45.06540       71.11777
N          3.17411       45.27996       71.67865
H          7.85512       43.93483       66.51519
H          8.44894       43.98865       68.74533
H          6.71756       43.37364       70.39254
H          5.75212       42.54715       69.11929
H          5.63474       44.73668       67.83880
H          6.48018       45.56246       69.18056
H          3.77070       44.06390       69.32413
H          3.98713       45.84372       69.17313
H          5.15619       45.93425       71.36828
H          4.94484       44.15356       71.57625
H          2.56500       44.45352       71.47755
H          3.25273       45.39854       72.71426
H          2.74382       46.14163       71.27050
N          9.70085       41.59275       68.31810
C         10.39522       40.31891       68.46960
C         10.61644       39.69675       67.09534
O         10.03950       38.64190       66.87607
C         11.68730       40.42500       69.31190
C         11.37903       40.79694       70.77037
C         12.63682       40.85834       71.58938
O         13.50958       41.66757       71.31754
O         12.80352       40.02649       72.63552
H         10.12088       42.32608       67.73293
H          9.74819       39.60658       69.02994
H         12.40411       41.15542       68.90132
H         12.18424       39.42896       69.31573
H         10.70302       40.02767       71.20554
H         10.87007       41.78276       70.82000
N         11.38433       40.22130       66.08945
C         12.16435       41.44095       66.09965
H         13.22998       41.18674       65.91818
H         11.81499       42.10095       65.27924
H         12.10706       42.01505       67.02963
H         11.42683       39.69920       65.20424
Ca         9.29441       35.78308       66.92184
O          9.85352       36.98077       69.79532
H          9.60265       36.03971       69.97339
H         10.84256       36.97310       69.75241
O          7.30367       38.00112       68.42853
H          7.02966       37.31201       67.77364
H          6.97029       38.85015       68.04549
O         12.15616       34.99299       68.16260
H         11.87176       34.79475       67.23618
H         11.50475       34.50913       68.72947

Ca 1.0



