%chk=apoCaM-CA-Ng.loop1.water5.frame383.chk
%nprocshared=20
%mem=10GB
%nosave
#b3lyp/svp scf=(tight,noincore,xqc) Test 
#IOP(5/87=12) Density=Current Pop=(MK,readradii) iop(6/33=2) iop(6/42=6)

apoCaM-CA-Ng.loop1.water5.frame383 

   0  1 
C          4.45644      108.24051       16.74675
C          3.92225      106.99446       16.09947
O          4.06305      106.84159       14.89470
H          5.55044      108.31159       16.57321
H          3.95570      109.13061       16.31391
H          4.27876      108.23711       17.84392
N          3.30298      106.04569       16.85224
C          2.79397      104.78846       16.31311
C          1.53805      104.95806       15.44269
O          0.98656      103.94158       15.07521
C          2.49040      103.79161       17.46528
C          3.71234      103.41589       18.27036
O          4.09609      102.25639       18.28922
O          4.37345      104.33720       18.99611
H          3.23693      106.20649       17.86848
H          3.58587      104.30032       15.70097
H          2.10874      102.84851       17.02017
H          1.70849      104.20004       18.14052
N          1.01395      106.15223       15.04108
C         -0.22053      106.24123       14.24995
C          0.06241      106.64459       12.80765
O          0.77754      107.62030       12.62453
C         -1.18024      107.29091       14.85227
C         -1.97472      106.84833       16.08900
C         -1.15067      106.57433       17.35104
C         -2.04217      106.16138       18.54043
N         -2.98673      107.20891       18.93720
H          1.49208      107.03118       15.27818
H         -0.74692      105.27873       14.23359
H         -1.96471      107.50156       14.09113
H         -0.64207      108.24691       15.03825
H         -2.56611      105.94253       15.83303
H         -2.68050      107.67790       16.29790
H         -0.55987      107.47558       17.62241
H         -0.45161      105.73631       17.15827
H         -1.38046      105.92846       19.40332
H         -2.61053      105.24132       18.28573
H         -3.48504      106.90361       19.80402
H         -2.47945      108.10163       19.13333
H         -3.71014      107.35922       18.19882
N         -0.52084      106.04732       11.70918
C         -1.44918      104.90544       11.67873
C         -2.68618      105.11210       12.54426
O         -2.84992      104.41341       13.53488
C         -0.71430      103.56279       11.89670
C          0.14773      103.21606       10.70169
O          0.21656      104.05929        9.64848
O          0.73393      102.14730       10.65991
H         -0.31274      106.47049       10.79148
H         -1.86005      104.79581       10.65395
H         -1.46717      102.74981       11.96741
H         -0.12519      103.56897       12.83018
N         -3.66146      106.00653       12.21325
C         -3.65684      106.76325       10.96480
C         -4.89237      107.63657       10.78327
O         -5.70866      107.71592       11.68900
H         -4.46390      106.08341       12.85561
H         -3.65478      106.03214       10.12645
H         -2.74873      107.39776       10.91203
N         -5.15033      108.30421        9.61557
C         -4.29854      108.25380        8.42827
C         -4.76488      107.21761        7.42449
O         -3.94850      106.79878        6.61583
C         -4.14660      109.63772        7.75880
C         -5.42247      110.24828        7.21504
O         -5.36985      111.33077        6.65460
O         -6.61475      109.62987        7.32303
H         -6.04540      108.81172        9.55824
H         -3.27958      107.93722        8.73339
H         -3.43746      109.53546        6.90788
H         -3.70652      110.34371        8.49308
N         -6.03653      106.72451        7.43456
C         -6.48001      105.66784        6.54757
C         -6.73344      104.44767        7.38251
O         -7.84501      103.93991        7.41259
H         -6.72242      107.07677        8.11653
H         -5.70446      105.40019        5.79599
H         -7.38306      105.99707        5.98839
N         -5.69232      103.91038        8.07579
C         -5.77976      102.68939        8.85894
C         -6.39219      102.94732       10.22438
O         -5.99158      103.88333       10.90457
C         -4.38213      102.04935        8.99489
C         -4.47302      100.65448        9.62434
O         -3.53764      102.87438        9.75357
H         -4.76714      104.35502        7.96929
H         -6.38027      101.94773        8.28492
H         -3.97340      101.93489        7.96413
H         -2.62549      102.49189        9.67865
H         -5.15400      100.00893        9.02806
H         -3.47034      100.18167        9.64433
H         -4.85328      100.71920       10.66059
N         -7.33223      102.09343       10.70934
C         -7.95971      102.23381       12.01791
C         -6.93184      102.15855       13.14340
O         -6.90586      103.07017       13.95759
C         -9.06179      101.14541       12.24415
C        -10.13909      101.09565       11.12267
C         -9.74625      101.32663       13.61757
C        -10.89801      102.40436       10.89215
H         -7.59630      101.29834       10.11229
H         -8.46188      103.22602       12.06583
H         -8.57300      100.14642       12.24907
H        -10.87271      100.29781       11.37070
H         -9.68110      100.79975       10.15855
H        -10.24082      102.31652       13.69531
H        -10.50348      100.53056       13.77913
H         -9.01432      101.25249       14.44703
H        -11.44333      102.72151       11.80309
H        -10.20679      103.21034       10.57087
H        -11.64177      102.25277       10.08202
N         -6.09375      101.08379       13.28081
C         -5.28500      100.86614       14.48342
C         -3.79783      101.12921       14.24192
O         -3.37770      101.34903       13.11810
C         -5.54611       99.42900       15.02959
C         -7.03968       99.10672       15.19599
O         -4.88532       99.20793       16.25005
H         -6.08600      100.35740       12.55139
H         -5.59532      101.59736       15.26152
H         -5.14381       98.70070       14.29197
H         -5.30824       99.79657       16.93019
H         -7.56589       99.16305       14.22198
H         -7.15800       98.07075       15.57892
H         -7.51787       99.80996       15.90961
N         -2.96806      101.21138       15.32561
C         -1.55795      101.61150       15.30635
C         -0.62574      100.62083       14.59794
O         -1.07785       99.59547       14.10315
C         -1.08834      101.87020       16.77516
C         -1.05000      100.60281       17.64411
O         -1.93350      102.82297       17.36620
H         -3.40877      101.08755       16.24480
H         -1.48229      102.58480       14.77804
H         -0.06668      102.28908       16.75471
H         -1.44805      103.19138       18.15038
H         -0.35384       99.85442       17.21419
H         -0.68520      100.86408       18.66046
H         -2.05282      100.14240       17.74810
N          0.72092      100.86699       14.57627
C          1.75938       99.97713       14.07768
C          2.71911      100.67843       13.08647
O          3.58684      100.01259       12.54545
C          2.55737       99.55324       15.33343
C          3.50819       98.36408       15.17531
C          4.33178       98.21136       16.46769
C          5.21897       96.96054       16.48461
N          4.42907       95.73737       16.64027
H          1.06403      101.69797       15.05554
H          1.28670       99.09165       13.59827
H          1.83670       99.26141       16.13073
H          3.11343      100.44738       15.69985
H          4.21894       98.50779       14.33809
H          2.88925       97.46666       14.96892
H          3.67369       98.19106       17.36429
H          4.98781       99.10719       16.54800
H          5.90754       97.04013       17.35497
H          5.83730       96.91376       15.56120
H          3.88669       95.77879       17.53468
H          3.77471       95.60330       15.83852
H          5.07595       94.91782       16.68364
N          2.66663      102.02899       12.85153
C          3.63393      102.76818       12.03442
C          5.03152      102.65118       12.61399
O          5.20971      102.92121       13.79422
C          3.26806      104.28012       12.00573
C          4.22432      105.14186       11.15326
C          4.18592      104.77770        9.69822
O          5.29594      104.33750        9.07584
O          3.15309      104.90828        9.06561
H          1.92873      102.57975       13.29354
H          3.60498      102.38438       10.99086
H          3.28745      104.67451       13.04464
H          2.24069      104.42164       11.62457
H          5.26312      105.04728       11.53365
H          3.93180      106.20929       11.24761
N          6.08621      102.34901       11.80574
C          7.46275      102.35154       12.25989
H          8.02443      103.13559       11.70702
H          7.55297      102.56982       13.34495
H          7.92579      101.36571       12.05465
H          5.91890      102.16550       10.80524
Ca         1.16259      103.61968        7.64983
O          2.95265      101.44201        7.05505
H          3.64808      102.08408        6.76413
H          3.13117      101.30227        8.01904
O         -1.92878      104.42113        7.55146
H         -1.79370      104.89355        6.69259
H         -2.15457      103.49419        7.28862
O         -0.59258      101.31393        7.90965
H          0.25340      100.95306        8.27611
H         -0.92746      100.60272        7.30936
O          2.84183      104.63195        5.32102
H          3.04124      104.07715        4.52558
H          3.72776      104.93449        5.64332
O         -0.15048      103.20612        4.92943
H         -1.13444      103.23451        4.82422
H          0.20235      103.49776        4.05171

Ca 1.0



