%chk=apoCaM-CA-Ng.loop4.water5.frame557.chk
%nprocshared=20
%mem=10GB
%nosave
#b3lyp/svp scf=(tight,noincore,xqc) Test 
#IOP(5/87=12) Density=Current Pop=(MK,readradii) iop(6/33=2) iop(6/42=6)

apoCaM-CA-Ng.loop4.water5.frame557 

   -3  1 
C         49.04984        8.17220      -28.02189
C         47.95759        7.45276      -28.76107
O         47.32409        6.59946      -28.16503
H         49.56969        8.90726      -28.67099
H         48.61710        8.71295      -27.15328
H         49.79623        7.43756      -27.65299
N         47.67422        7.76006      -30.06192
C         46.65070        7.12902      -30.90480
C         45.20049        7.35615      -30.46645
O         44.32309        6.98306      -31.23397
C         46.90863        5.61582      -31.08799
C         48.23868        5.32379      -31.71328
O         49.14075        4.56861      -31.05930
O         48.49162        5.73410      -32.83415
H         48.24674        8.48984      -30.51340
H         46.72618        7.60590      -31.90830
H         46.12890        5.17646      -31.74671
H         46.84661        5.10221      -30.11471
N         44.84575        7.92728      -29.27904
C         43.45048        8.10133      -28.88071
C         42.74486        9.11671      -29.76422
O         43.33967       10.14659      -30.04973
C         43.26309        8.47251      -27.37508
C         43.73831        9.88033      -26.90700
C         43.80758        7.35373      -26.47121
C         45.24179       10.16315      -26.92955
H         45.57392        8.19529      -28.62022
H         42.95844        7.11410      -28.98041
H         42.16263        8.48278      -27.20508
H         43.40456       10.00076      -25.85306
H         43.22384       10.66914      -27.49533
H         44.90523        7.24012      -26.57186
H         43.56265        7.56589      -25.40943
H         43.33180        6.38523      -26.73926
H         45.63010       10.22186      -27.96421
H         45.42850       11.15473      -26.46621
H         45.79965        9.40406      -26.34252
N         41.44790        8.97853      -30.16954
C         40.58582        7.83627      -29.87128
C         40.99359        6.62765      -30.68668
O         41.17138        5.55361      -30.12875
C         39.11217        8.15841      -30.20404
C         38.60142        9.32426      -29.40311
O         38.17485       10.31765      -29.96976
O         38.60268        9.27501      -28.05693
H         41.03598        9.76791      -30.69313
H         40.61117        7.60580      -28.78275
H         38.48207        7.27507      -29.95862
H         38.99834        8.37237      -31.28953
N         41.13636        6.74126      -32.03659
C         41.38236        5.61824      -32.91902
C         40.12644        4.79448      -33.04281
O         39.09529        5.35613      -33.38809
H         41.04778        7.67250      -32.47045
H         42.26463        5.03255      -32.57814
H         41.60537        6.00957      -33.93452
N         40.12856        3.45396      -32.80336
C         38.92018        2.64008      -32.93297
C         37.88123        2.90553      -31.83603
O         36.83558        2.27103      -31.87741
C         39.26718        1.13618      -33.05904
C         39.98717        0.50923      -31.89557
O         40.27163       -0.67673      -31.94327
O         40.34841        1.22858      -30.81802
H         41.02735        2.99808      -32.58517
H         38.44065        2.88908      -33.90709
H         39.90572        1.00429      -33.96048
H         38.32522        0.57134      -33.23616
N         38.05692        3.84525      -30.85605
C         37.03888        4.14258      -29.85800
C         36.91097        3.08590      -28.78017
O         36.03975        3.22945      -27.93561
H         38.90573        4.42171      -30.83420
H         36.06565        4.30879      -30.36872
H         37.30729        5.08564      -29.33402
N         37.77857        2.03697      -28.70084
C         37.77783        1.03031      -27.64687
C         38.00480        1.68779      -26.28877
O         37.27689        1.42467      -25.34132
C         36.51662        0.13740      -27.72822
C         36.41498       -0.55052      -29.10643
C         35.20493       -1.44002      -29.25738
N         35.00093       -2.09877      -30.42221
O         34.40471       -1.57042      -28.34229
H         38.52761        1.95581      -29.39543
H         38.65794        0.36995      -27.81940
H         35.60455        0.74665      -27.55167
H         36.57309       -0.64546      -26.94032
H         37.32455       -1.16813      -29.27138
H         36.36343        0.22188      -29.90335
H         35.66444       -1.99954      -31.20510
H         34.17883       -2.70850      -30.54485
N         39.01818        2.59099      -26.15563
C         39.37823        3.28472      -24.91875
C         40.86929        3.16619      -24.62188
O         41.30724        3.79231      -23.66509
C         39.04058        4.80911      -25.02037
C         39.63960        5.47861      -26.27368
C         37.53503        5.06530      -24.94226
H         39.55646        2.82638      -27.00361
H         38.82925        2.86782      -24.04525
H         39.46668        5.32075      -24.12776
H         39.45927        6.57391      -26.24517
H         40.73694        5.31499      -26.32557
H         39.17318        5.08196      -27.20022
H         37.00157        4.60338      -25.79525
H         37.13559        4.65187      -23.99058
H         37.34260        6.16053      -24.93810
N         41.72608        2.44276      -25.39970
C         43.17197        2.60439      -25.30509
C         43.81941        1.38287      -24.65894
O         43.10431        0.48701      -24.22723
C         43.68279        2.93829      -26.72917
C         44.99613        3.67721      -26.80448
N         45.55705        3.90516      -28.00804
O         45.54439        4.10889      -25.80068
H         41.36682        1.83082      -26.14761
H         43.40614        3.47361      -24.65397
H         42.95844        3.62155      -27.22758
H         43.72021        1.99830      -27.32245
H         45.10649        3.58238      -28.87656
H         46.45732        4.39255      -28.05956
N         45.17282        1.29382      -24.52856
C         45.87750        0.22927      -23.82783
C         46.81938        0.83646      -22.79589
O         46.95042        2.05412      -22.73638
C         46.65481       -0.59751      -24.86755
C         45.68346       -1.29248      -25.79180
C         45.46637       -0.82024      -27.09686
C         44.96494       -2.41174      -25.33818
C         44.53751       -1.45349      -27.92977
C         44.05020       -3.05313      -26.17774
C         43.82863       -2.57497      -27.47301
O         42.93272       -3.19751      -28.26549
H         45.76682        2.01066      -24.95135
H         45.16177       -0.42987      -23.28771
H         47.31241       -1.36082      -24.39852
H         47.30969        0.10029      -25.43622
H         45.99731        0.05011      -27.46168
H         45.12047       -2.79205      -24.33596
H         44.36714       -1.07030      -28.92790
H         43.50968       -3.92021      -25.81869
H         42.74312       -2.89567      -29.16524
N         47.48025        0.03835      -21.91325
C         48.36260        0.54895      -20.86985
C         49.68170       -0.22308      -20.91394
O         49.90337       -1.06153      -20.05048
C         47.63379        0.41617      -19.51457
C         48.40005        1.11675      -18.37818
C         47.65634        1.01374      -17.07891
O         46.53621        1.48724      -16.96998
O         48.23053        0.41212      -16.01991
H         47.29900       -0.97799      -21.93829
H         48.54921        1.63648      -20.99353
H         47.45850       -0.65525      -19.27225
H         46.64216        0.91350      -19.60812
H         48.53184        2.19319      -18.62558
H         49.40584        0.66473      -18.25470
N         50.61033       -0.05768      -21.90094
C         50.55056        0.97083      -22.93690
C         50.74813        2.34808      -22.30873
O         51.16401        2.42763      -21.15980
C         51.63685        0.65646      -23.99863
C         51.69649        1.61119      -25.19793
C         52.68850        1.11101      -26.21011
O         52.49881       -0.08041      -26.80955
O         53.66871        1.77914      -26.49620
H         51.42607       -0.69167      -21.88772
H         49.55855        0.91527      -23.43110
H         51.42048       -0.36581      -24.38214
H         52.63878        0.63796      -23.51296
H         52.01084        2.62012      -24.85733
H         50.70026        1.68027      -25.68420
N         50.43782        3.48067      -23.00030
C         50.60958        4.81630      -22.46218
H         49.62478        5.32610      -22.41952
H         51.04601        4.81296      -21.44079
H         51.28670        5.39450      -23.12509
H         50.04268        3.40252      -23.94822
Ca        51.89567        5.27686      -30.17732
O         51.31483        1.92347      -30.11820
H         51.80396        1.23754      -29.59794
H         50.39737        1.90983      -29.74635
O         50.05567        4.27176      -27.83004
H         49.61446        4.79278      -27.11331
H         49.30813        3.87622      -28.34461
O         53.33941        4.80858      -27.56698
H         54.27670        5.03360      -27.79281
H         53.19317        3.91974      -27.97793
O         51.69575        6.21979      -33.12564
H         51.26871        5.50140      -33.65683
H         50.96230        6.59483      -32.57651
O         53.26942        3.37601      -32.21368
H         52.89693        2.64600      -32.76915
H         53.62341        4.03033      -32.86703

Ca 1.0



