%chk=apoCaM-CA-Ng.loop3.water5.frame1010.chk
%nprocshared=20
%mem=10GB
%nosave
#b3lyp/svp scf=(tight,noincore,xqc) Test 
#IOP(5/87=12) Density=Current Pop=(MK,readradii) iop(6/33=2) iop(6/42=6)

apoCaM-CA-Ng.loop3.water5.frame1010 

   0  1 
C         25.41675       24.14205       13.31245
C         24.20892       24.15399       12.42755
O         23.11256       24.39549       12.91362
H         26.14002       24.90705       12.96015
H         25.13669       24.37064       14.36286
H         25.89401       23.14065       13.27671
N         24.34123       23.90676       11.09501
C         23.20949       23.92257       10.17912
C         22.13900       22.91119       10.57744
O         20.99259       23.31045       10.61211
C         23.64640       23.84305        8.70161
C         24.40220       22.62115        8.24701
O         24.76977       22.55236        7.08547
O         24.71162       21.61894        9.08596
H         25.28569       23.72563       10.72131
H         22.73639       24.93082       10.24951
H         24.29534       24.72371        8.49550
H         22.73362       23.95226        8.08614
N         22.45182       21.65974       11.03206
C         21.50726       20.70441       11.63810
C         20.51392       20.08317       10.64582
O         20.62476       18.90611       10.32864
C         22.29337       19.58972       12.38132
C         23.11054       20.15120       13.56420
C         23.92671       19.08741       14.31512
C         23.06153       18.02944       15.01894
N         23.89599       17.11416       15.79762
H         23.44967       21.41721       11.06335
H         20.91073       21.21386       12.42758
H         22.96391       19.06065       11.66805
H         21.55909       18.86085       12.78523
H         22.42746       20.65842       14.28046
H         23.83326       20.90696       13.19420
H         24.52224       19.61671       15.09083
H         24.63350       18.59359       13.61314
H         22.48526       17.44236       14.27260
H         22.34365       18.53497       15.70248
H         24.42474       17.64380       16.52868
H         23.28507       16.40925       16.26991
H         24.56750       16.61564       15.16956
N         19.46418       20.81150       10.17684
C         18.41878       20.31144        9.29095
C         18.53169       20.93402        7.90918
O         17.61802       20.77577        7.11074
C         17.01974       20.53926        9.91641
C         16.66821       21.97624       10.21008
O         17.34953       22.66063       11.14733
O         15.71042       22.49746        9.66255
H         19.38606       21.78417       10.46441
H         18.51345       19.21411        9.13846
H         16.94648       19.97408       10.87044
H         16.25487       20.11685        9.22737
N         19.67517       21.56129        7.51574
C         19.85105       22.09063        6.17646
C         21.31267       22.41967        5.96225
O         22.10820       21.49399        6.03669
H         20.47156       21.61798        8.16779
H         19.16071       22.94531        6.04491
H         19.58438       21.31574        5.42553
N         21.79542       23.67453        5.74251
C         20.99027       24.88281        5.65334
C         21.88940       26.10056        5.87698
O         22.83013       26.27683        5.11327
C         20.31680       24.95185        4.26861
C         19.49514       26.20483        4.10556
N         19.81228       27.11455        3.15474
O         18.53800       26.40195        4.83920
H         22.82214       23.77094        5.68837
H         20.21330       24.85323        6.43911
H         19.65742       24.07425        4.10851
H         21.10952       24.91414        3.48975
H         20.61868       26.96714        2.52987
H         19.25476       27.97399        3.04511
N         21.69972       26.99197        6.89505
C         20.59398       26.89576        7.83883
C         20.59195       27.98088        8.89257
O         21.49859       28.79353        8.95858
H         22.36988       27.77035        6.97655
H         20.64219       25.92210        8.37323
H         19.63954       26.96700        7.27645
N         19.56217       28.00626        9.78818
C         19.47828       28.95905       10.89570
C         18.31185       28.60986       11.81915
O         17.39865       27.91054       11.40752
C         19.29267       30.40017       10.35263
C         19.43729       31.46644       11.40939
C         18.36390       32.31180       11.73657
C         20.67050       31.64092       12.05836
C         18.52315       33.31146       12.70222
C         20.82898       32.64259       13.01835
C         19.75491       33.48250       13.34365
O         19.89702       34.45742       14.26390
H         18.84689       27.27776        9.68616
H         20.42155       28.85332       11.47325
H         18.29674       30.45996        9.85841
H         20.04797       30.63465        9.57706
H         17.40572       32.20122       11.24499
H         21.51307       31.00706       11.81212
H         17.69013       33.95816       12.94776
H         21.78853       32.76729       13.50379
H         20.73618       34.61439       14.72029
N         18.27935       29.07680       13.10234
C         17.14119       28.80408       13.98011
C         15.86993       29.41341       13.41489
O         15.94525       30.35070       12.63141
C         17.36334       29.29677       15.44831
C         18.40914       28.40916       16.16477
C         17.72405       30.80009       15.52189
C         18.54907       28.71820       17.65877
H         19.08367       29.61394       13.44616
H         16.98919       27.70211       14.00502
H         16.40230       29.15176       15.99177
H         19.40240       28.49532       15.67538
H         18.07368       27.35123       16.08751
H         18.71957       31.01004       15.07983
H         16.96651       31.41616       14.99637
H         17.75110       31.15170       16.57276
H         19.24347       27.98782       18.12465
H         18.96525       29.73203       17.82586
H         17.56312       28.63650       18.16539
N         14.65493       28.93071       13.80350
C         13.39304       29.53336       13.39310
C         12.44954       28.55951       12.70437
O         12.65268       27.35540       12.74880
C         12.70777       30.09158       14.65012
O         12.46663       29.05052       15.55936
H         14.63108       28.13655       14.45962
H         13.57912       30.37042       12.68627
H         11.74829       30.58306       14.38144
H         13.38645       30.83860       15.11762
H         12.07650       29.46391       16.37131
N         11.33538       29.06068       12.09483
C         10.21368       28.28469       11.57995
C          9.53084       27.56908       12.72756
O          9.21752       26.39084       12.62420
C         10.61129       27.36032       10.41868
H         11.22919       30.08637       12.05626
H          9.46924       29.01149       11.18440
H         11.33297       26.58340       10.74428
H          9.70982       26.84874       10.01609
H         11.06641       27.95484        9.59921
N          9.31035       28.25488       13.88913
C          8.69564       27.70970       15.08816
C          9.20854       26.31665       15.40811
O          8.41023       25.39465       15.51519
C          7.16981       27.77734       14.96930
H          9.64580       29.22773       13.95445
H          8.96267       28.37680       15.93938
H          6.80491       27.13369       14.14303
H          6.70292       27.45284       15.92486
H          6.85657       28.82645       14.77652
N         10.54159       26.09875       15.59553
C         11.07884       24.79127       15.96043
C         11.46065       24.74045       17.42675
O         11.77893       23.65854       17.90103
C         12.28199       24.40428       15.07409
C         13.53575       25.26872       15.33170
C         14.66617       24.79869       14.47515
O         15.21495       25.61149       13.55494
O         15.07923       23.65464       14.58664
H         11.17892       26.90333       15.53431
H         10.29238       24.01912       15.81171
H         11.98911       24.46775       14.00240
H         12.54319       23.34414       15.29168
H         13.85576       25.19205       16.39313
H         13.32046       26.32923       15.10756
N         11.47325       25.86329       18.20308
C         11.83897       25.85847       19.60123
H         12.73970       26.49149       19.74130
H         11.00186       26.28071       20.19410
H         12.06030       24.83861       19.97767
H         11.23620       26.78073       17.80140
Ca        16.50414       24.51670       12.08507
O         19.27437       25.53372       11.48775
H         19.18996       24.56622       11.66907
H         20.17394       25.77768       11.82041
O         13.59645       23.42451       11.74267
H         13.42013       23.11218       10.82043
H         14.07668       22.67261       12.17245
O         18.41472       24.49517       14.53709
H         18.00411       23.60130       14.42331
H         19.29858       24.41743       14.09828
O         16.80907       25.74088        8.95964
H         17.56801       25.39368        8.42730
H         16.71704       26.68570        8.67632
O         14.33689       26.61493       10.28900
H         14.43339       27.57523       10.50940
H         14.34320       26.15711       11.16554

Ca 1.0



