%chk=apoCaM-CA-Ng.loop2.water5.frame451.chk
%nprocshared=20
%mem=10GB
%nosave
#b3lyp/svp scf=(tight,noincore,xqc) Test 
#IOP(5/87=12) Density=Current Pop=(MK,readradii) iop(6/33=2) iop(6/42=6)

apoCaM-CA-Ng.loop2.water5.frame451 

   -2  1 
C         74.95165       94.90552       67.47150
C         75.74119       96.09688       66.99883
O         76.67898       96.49057       67.67679
H         74.11809       94.66677       66.77696
H         75.60977       94.01547       67.55259
H         74.51482       95.12329       68.46966
N         75.42401       96.71710       65.82796
C         76.09914       97.91841       65.34028
C         75.57554       99.13216       66.08717
O         74.36247       99.25256       66.20250
C         75.79763       98.11375       63.84116
C         76.64184       99.18873       63.19676
O         76.47713       99.45060       62.01723
O         77.60374       99.83764       63.88358
H         74.67029       96.31022       65.25219
H         77.20122       97.78647       65.43179
H         74.71926       98.35436       63.70893
H         76.01205       97.16731       63.30179
N         76.41123      100.08149       66.59911
C         75.91533      101.24084       67.33483
C         76.32560      101.12911       68.78086
O         77.07417      100.22765       69.13606
C         76.39811      102.55238       66.70214
H         77.43039       99.97057       66.48798
H         74.80309      101.25846       67.32600
H         77.50660      102.60995       66.71062
H         76.03992      102.62830       65.65308
H         75.99588      103.42700       67.25935
N         75.78309      101.97114       69.69858
C         75.95760      101.76133       71.12903
C         77.25911      102.38810       71.64437
O         77.48050      102.32305       72.84192
C         74.77351      102.38953       71.90737
C         73.39683      102.19855       71.29340
O         72.76437      101.01366       71.15524
O         72.80505      103.19454       70.90932
H         75.10968      102.67968       69.36917
H         75.92872      100.66799       71.33421
H         74.94700      103.48884       71.92765
H         74.78110      102.02992       72.95940
N         78.09603      103.10106       70.82576
C         79.20457      103.93598       71.28039
C         80.47013      103.22015       71.72229
O         81.48297      103.40803       71.06101
H         77.86397      103.18583       69.82573
H         78.85705      104.63045       72.07403
H         79.49714      104.57809       70.41639
N         80.53134      102.46273       72.85766
C         81.77995      101.91006       73.38061
C         81.77503      100.39313       73.36929
O         80.75408       99.77843       73.09171
C         81.99858      102.42715       74.81861
C         82.14599      103.92689       74.87061
N         83.20664      104.53485       74.29045
O         81.31092      104.59747       75.45934
H         79.68752      102.31267       73.41808
H         82.63634      102.21690       72.74172
H         82.90826      101.97846       75.27016
H         81.12460      102.11822       75.43629
H         83.93150      103.98267       73.80976
H         83.31414      105.55891       74.33790
N         82.94501       99.72799       73.59699
C         83.08666       98.28492       73.49254
C         82.67270       97.55512       74.74731
O         82.27238       98.18427       75.71754
H         83.80481      100.28130       73.73520
H         84.16208       98.04932       73.34256
H         82.53527       97.91248       72.60216
N         82.77401       96.19235       74.78615
C         82.45553       95.38485       75.96438
C         81.22179       94.52865       75.75843
O         80.76473       93.94006       76.72932
C         83.64320       94.46845       76.35638
C         83.92018       93.35318       75.32435
O         84.80047       95.22604       76.60093
H         83.08853       95.71160       73.93047
H         82.23283       96.06117       76.81979
H         83.37739       93.95336       77.30613
H         85.14314       95.54513       75.72568
H         83.02504       92.70826       75.19423
H         84.19755       93.77001       74.33495
H         84.74603       92.70423       75.67872
N         80.61571       94.42021       74.54272
C         79.36808       93.69925       74.34766
C         78.28056       94.73933       74.27239
O         78.59038       95.90564       74.05264
C         79.46231       92.79516       73.07389
C         80.59311       91.73841       73.17937
C         78.13082       92.11941       72.70004
C         80.42592       90.73056       74.32082
H         80.98264       94.94355       73.73494
H         79.12843       93.08752       75.24196
H         79.72436       93.44962       72.21121
H         81.56874       92.25278       73.30422
H         80.64461       91.17367       72.22190
H         77.75016       91.48336       73.52422
H         77.36528       92.87955       72.44828
H         78.25869       91.49658       71.78912
H         80.44376       91.23847       75.30583
H         79.48190       90.15807       74.21652
H         81.26716       90.00691       74.29640
N         76.97724       94.40208       74.48590
C         75.91982       95.39151       74.40276
C         75.01437       95.42593       75.63232
O         74.07290       96.20476       75.63860
C         75.18338       95.17746       73.06960
C         74.66112       96.48687       72.56786
O         73.37764       96.67861       72.25097
O         75.44232       97.41417       72.42021
H         76.72523       93.41654       74.65215
H         76.38641       96.39899       74.36331
H         74.42474       94.36885       73.14251
H         75.92827       94.87642       72.29870
N         75.28768       94.68396       76.74643
C         74.55066       94.82587       77.99902
C         73.16980       94.17897       77.94945
O         73.10992       92.97113       77.76565
C         75.35312       94.16648       79.14595
C         74.70090       94.38110       80.49090
C         75.02356       95.51232       81.25730
C         73.76164       93.45926       80.98714
C         74.41712       95.71763       82.49989
C         73.15486       93.67020       82.22826
C         73.48301       94.79807       82.98468
H         76.12615       94.08595       76.75207
H         74.49839       95.90799       78.24473
H         76.37622       94.60222       79.17149
H         75.48755       93.07735       78.96002
H         75.74318       96.23410       80.89153
H         73.49629       92.58001       80.41389
H         74.67112       96.59072       83.08638
H         72.43046       92.95880       82.60348
H         73.01374       94.95941       83.94630
N         72.02180       94.87486       78.22498
C         70.74794       94.23022       78.52062
C         70.01925       93.64495       77.32409
O         68.94947       93.09382       77.54605
C         69.95116       95.33456       79.22740
C         70.45170       96.57911       78.53131
C         71.95187       96.30383       78.45549
H         70.88738       93.40394       79.25378
H         68.84932       95.19302       79.25582
H         70.31306       95.40238       80.28022
H         70.03330       96.57193       77.49889
H         70.18632       97.54098       79.01966
H         72.38767       96.90205       77.62754
H         72.46344       96.53345       79.41663
N         70.51840       93.68016       76.05405
C         69.83910       93.03730       74.92826
C         70.67099       91.92254       74.30660
O         70.16868       91.26422       73.40520
C         69.43738       94.08417       73.87378
C         70.63547       94.74605       73.17515
C         70.15813       95.76012       72.18336
O         70.51690       97.04893       72.31872
O         69.44142       95.42497       71.25361
H         71.40986       94.16272       75.87937
H         68.89570       92.56156       75.27528
H         68.81476       94.86299       74.36753
H         68.80831       93.58553       73.10238
H         71.24029       93.98165       72.64071
H         71.28534       95.25304       73.91767
N         71.94205       91.64629       74.71583
C         72.73052       90.59545       74.11286
H         73.73503       90.55931       74.58610
H         72.23073       89.61478       74.25942
H         72.85699       90.79316       73.02723
H         72.38381       92.19125       75.46549
Ca        73.05908       98.83394       71.65161
O         71.53090       96.98052       68.84420
H         71.51788       96.50009       67.97907
H         70.97250       96.42527       69.44135
O         72.21113       99.77460       68.52597
H         72.13335      100.55725       67.92567
H         73.16454       99.75987       68.79121
O         70.09512       99.72690       71.26987
H         69.78364      100.63667       71.03652
H         69.26560       99.19401       71.35722
O         72.73254       99.08468       74.57885
H         73.57836       99.53724       74.33282
H         72.89024       98.13277       74.36093
O         74.98916       97.86756       69.59786
H         75.25281       98.22943       68.71906
H         75.31445       98.55236       70.23076

Ca 1.0



