%chk=apoCaM-CA-Ng.loop1.water4.frame327.chk
%nprocshared=20
%mem=10GB
%nosave
#b3lyp/svp scf=(tight,noincore,xqc) Test 
#IOP(5/87=12) Density=Current Pop=(MK,readradii) iop(6/33=2) iop(6/42=6)

apoCaM-CA-Ng.loop1.water4.frame327 

   0  1 
C         57.42176       71.40140       90.44729
C         56.62261       72.57741       89.96095
O         56.98601       73.16734       88.95376
H         58.45603       71.72320       90.68676
H         56.97291       70.95339       91.35987
H         57.45337       70.62107       89.65817
N         55.50062       72.96638       90.62650
C         54.64490       74.06576       90.18761
C         55.27897       75.44694       90.38965
O         54.59548       76.41434       90.10507
C         53.28881       74.03173       90.94161
C         52.49386       72.77374       90.68754
O         52.95368       71.57227       91.08492
O         51.40417       72.84263       90.14088
H         55.21926       72.42058       91.45445
H         54.40625       73.93267       89.10964
H         52.66774       74.88257       90.58579
H         53.44903       74.15541       92.03438
N         56.53737       75.64710       90.88227
C         57.06698       76.97576       91.21131
C         58.26961       77.34670       90.34990
O         58.99976       76.43618       89.98292
C         57.49320       76.95669       92.69608
C         56.29150       76.82194       93.64213
C         56.75643       76.87937       95.10579
C         55.60702       76.76975       96.12153
N         54.70563       77.92286       96.07500
H         57.13939       74.83873       91.08987
H         56.29734       77.75000       91.06523
H         58.02430       77.88774       92.95581
H         58.21479       76.12739       92.86886
H         55.76279       75.86169       93.45464
H         55.59549       77.65978       93.43544
H         57.30925       77.82685       95.29114
H         57.45330       76.03118       95.28161
H         56.05424       76.71882       97.13866
H         55.03608       75.83069       95.94977
H         54.21779       77.97690       95.15822
H         53.98035       77.81927       96.82069
H         55.23793       78.80762       96.24041
N         58.64046       78.64033       90.04008
C         57.94696       79.90380       90.34052
C         57.63976       80.09010       91.82034
O         56.49425       79.91329       92.21127
C         56.69812       80.14216       89.46314
C         57.01937       80.29585       88.00686
O         57.90307       81.22991       87.60392
O         56.42855       79.62948       87.17577
H         59.53030       78.74790       89.52795
H         58.61120       80.74698       90.05174
H         56.26131       81.11384       89.76066
H         55.93508       79.35839       89.61186
N         58.57183       80.48646       92.73171
C         59.92776       80.89205       92.38519
C         60.72048       81.36491       93.59795
O         60.24923       81.21836       94.71708
H         58.25256       80.56182       93.70958
H         59.84029       81.75707       91.69490
H         60.46970       80.06548       91.87966
N         61.91654       82.01379       93.48720
C         62.58595       82.33457       92.23216
C         62.39268       83.80699       91.93350
O         62.79822       84.63934       92.73325
C         64.08780       81.95854       92.26011
C         64.90663       82.68012       93.30659
O         65.79553       83.44401       92.96484
O         64.69494       82.46477       94.61884
H         62.32121       82.38348       94.35892
H         62.14057       81.75200       91.39971
H         64.50640       82.20314       91.25788
H         64.20210       80.86510       92.41481
N         61.74340       84.19512       90.79857
C         61.48053       85.58563       90.46433
C         59.99793       85.90202       90.43598
O         59.66814       87.05225       90.18238
H         61.40620       83.47496       90.14113
H         61.92811       85.80444       89.47109
H         61.94946       86.26987       91.20261
N         59.04608       84.95470       90.68899
C         57.61347       85.22383       90.70902
C         57.06468       84.81911       92.06086
O         57.26745       83.68093       92.46701
C         56.89702       84.43270       89.59779
C         57.43385       84.80185       88.21167
O         55.52304       84.72428       89.65125
H         59.33027       83.98390       90.87907
H         57.40577       86.30298       90.53056
H         57.06527       83.34572       89.77414
H         55.04768       83.97379       89.20955
H         58.51283       84.55300       88.13075
H         56.88772       84.22767       87.43418
H         57.29588       85.88748       88.01881
N         56.35129       85.69992       92.81686
C         55.86438       85.36750       94.15291
C         54.90127       84.17068       94.15649
O         54.66219       83.64150       95.23149
C         55.20973       86.63151       94.81642
C         54.99150       86.52434       96.34820
C         53.86964       86.98008       94.13836
C         56.30106       86.48572       97.13864
H         56.19793       86.64988       92.44487
H         56.77175       85.08434       94.72706
H         55.89220       87.49722       94.66060
H         54.36027       85.65092       96.60858
H         54.45162       87.43356       96.69421
H         53.99463       87.11915       93.04520
H         53.12217       86.17966       94.31071
H         53.45839       87.92322       94.55631
H         56.90332       85.58816       96.89928
H         56.89928       87.39801       96.92358
H         56.07557       86.46992       98.22596
N         54.26354       83.73204       93.02042
C         53.25565       82.66584       93.04537
C         53.54121       81.53596       92.06804
O         54.40519       81.65498       91.21652
C         51.84570       83.24784       92.76448
C         51.71454       83.85388       91.35947
O         51.53534       84.23485       93.71121
H         54.43481       84.21507       92.12915
H         53.23190       82.20518       94.05648
H         51.08668       82.43411       92.82946
H         51.36486       83.76597       94.56951
H         50.67960       84.22566       91.20946
H         52.40948       84.70741       91.22040
H         51.91986       83.09096       90.57846
N         52.81424       80.38566       92.17166
C         52.96680       79.21558       91.31103
C         52.40026       79.41914       89.91475
O         51.30841       79.95332       89.78058
C         52.26613       77.96772       91.92986
C         50.74181       78.07975       92.10681
O         52.85020       77.68433       93.17107
H         52.15948       80.32306       92.96317
H         54.04382       78.94300       91.25468
H         52.45244       77.11802       91.23588
H         52.77433       76.70420       93.31504
H         50.35401       77.13421       92.54073
H         50.46510       78.90690       92.79011
H         50.22959       78.22264       91.13525
N         53.01295       78.82097       88.85169
C         52.36886       78.60081       87.55794
C         53.37696       78.00267       86.58097
O         53.62396       78.61621       85.55242
C         51.14588       77.65749       87.75360
C         50.40805       77.29015       86.45648
C         49.17523       76.42098       86.76451
C         48.46100       75.97905       85.47959
N         47.28388       75.16409       85.78516
H         53.94501       78.41658       88.99848
H         52.02025       79.57438       87.14625
H         50.41343       78.14669       88.42800
H         51.47906       76.71807       88.24818
H         51.09685       76.72491       85.79230
H         50.08077       78.21594       85.93570
H         48.46663       77.00084       87.39720
H         49.48990       75.51424       87.32674
H         49.16450       75.38360       84.85615
H         48.14531       76.87366       84.89871
H         47.56216       74.31244       86.32511
H         46.59296       75.72140       86.33851
H         46.83380       74.86255       84.89063
N         54.01590       76.82443       86.85312
C         55.02935       76.23238       85.98488
C         54.61180       74.83445       85.57821
O         54.41786       73.99148       86.44331
C         56.39772       76.20940       86.71047
C         57.52694       75.55602       85.88687
C         57.69603       76.17473       84.52329
O         57.47354       75.50589       83.52684
O         58.10160       77.45075       84.37671
H         53.79344       76.33242       87.72999
H         55.15954       76.84969       85.07048
H         56.30957       75.65967       87.67222
H         56.68754       77.24691       86.95105
H         57.28852       74.47739       85.76599
H         58.48592       75.62528       86.44423
N         54.49458       74.51435       84.25864
C         54.16043       73.18830       83.78161
H         53.23768       73.23962       83.16810
H         54.99166       72.80982       83.14928
H         53.99768       72.46687       84.60942
H         54.67158       75.23782       83.54582
Ca        58.90966       78.69001       86.08077
O         59.42301       79.87322       82.55061
H         59.98868       80.61855       82.22686
H         59.83125       79.06148       82.15720
O         58.63144       82.55473       84.92796
H         59.16274       83.28147       85.34038
H         58.16275       82.98783       84.17090
O         56.64913       80.21279       83.85453
H         55.87628       80.35891       84.45549
H         56.50655       80.84670       83.10727
O         61.48679       77.84904       84.24959
H         62.03825       77.38684       83.57010
H         60.66836       77.29732       84.31291

Ca 1.0



