%chk=apoCaM-CA-Ng.loop4.water3.frame392.chk
%nprocshared=20
%mem=10GB
%nosave
#b3lyp/svp scf=(tight,noincore,xqc) Test 
#IOP(5/87=12) Density=Current Pop=(MK,readradii) iop(6/33=2) iop(6/42=6)

apoCaM-CA-Ng.loop4.water3.frame392 

   -3  1 
C         28.61182       85.65617       40.50970
C         29.53671       86.81679       40.72881
O         29.76545       87.54132       39.78249
H         27.62766       86.03437       40.15713
H         29.03437       84.98720       39.73002
H         28.45698       85.07269       41.43954
N         30.09434       87.06288       41.94967
C         30.97415       88.19066       42.26983
C         30.22660       89.51174       42.14216
O         30.58138       90.34981       41.33623
C         32.37635       88.09328       41.58873
C         32.44916       88.27880       40.09672
O         32.21141       89.48526       39.54980
O         32.75953       87.34283       39.37734
H         29.86123       86.42114       42.72243
H         31.22342       88.10819       43.35180
H         32.78058       87.08871       41.84314
H         33.05463       88.84665       42.04476
N         29.17284       89.74798       42.97596
C         28.34249       90.95413       43.05024
C         29.16741       92.16899       43.49525
O         29.03441       92.53265       44.65589
C         27.45729       91.15734       41.78476
C         26.37825       92.26927       41.95462
C         26.77137       89.83497       41.38963
C         25.30680       92.01531       43.02056
H         28.93585       89.00014       43.64723
H         27.63287       90.74206       43.88040
H         28.11304       91.45063       40.93606
H         25.85908       92.40158       40.97986
H         26.84934       93.22786       42.21653
H         27.52073       89.05937       41.13064
H         26.14772       89.43724       42.21657
H         26.12757       89.99241       40.50412
H         24.59175       92.86553       43.02145
H         24.72772       91.09498       42.80680
H         25.75429       91.95190       44.03245
N         30.04940       92.82988       42.67361
C         30.97761       93.85490       43.16463
C         30.72250       95.30196       42.69918
O         31.34786       96.16281       43.30399
C         32.43041       93.47012       42.79447
C         32.88937       92.13104       43.31325
O         34.01508       91.74270       43.04488
O         32.09173       91.35737       44.07398
H         30.10975       92.56901       41.68382
H         30.90874       93.89968       44.27442
H         33.13076       94.23578       43.19540
H         32.52037       93.46496       41.68564
N         29.87888       95.72718       41.70727
C         29.11884       94.87491       40.81873
C         28.15160       95.67116       39.96162
O         27.35028       96.37512       40.56023
H         29.79954       96.74809       41.57014
H         28.49188       94.21882       41.42331
H         29.82305       94.27144       40.24039
N         28.07189       95.63091       38.59261
C         28.88793       94.87132       37.64785
C         28.80042       93.36993       37.88676
O         29.72982       92.81020       38.45047
C         30.34921       95.39090       37.60037
C         31.14248       94.82383       36.44380
O         30.62969       94.07241       35.62916
O         32.43314       95.17261       36.29108
H         27.33285       96.21057       38.16415
H         28.48576       95.07586       36.63061
H         30.88549       95.16066       38.54113
H         30.33931       96.49419       37.47574
N         27.78193       92.58849       37.43679
C         26.64477       92.97397       36.62659
C         25.67213       93.84586       37.35464
O         25.33670       93.54306       38.48730
H         27.85097       91.59008       37.64066
H         26.08311       92.04518       36.38494
H         26.97434       93.41292       35.66168
N         25.12637       94.92493       36.73252
C         24.13043       95.78096       37.36697
C         22.80296       95.07297       37.69218
O         22.00912       95.68857       38.39147
C         23.96223       97.10465       36.57495
C         23.46789       97.00634       35.11678
C         22.03750       96.57524       35.00265
N         21.05404       97.30719       35.57536
O         21.76002       95.57383       34.36415
H         25.46366       95.15279       35.78723
H         24.56029       96.09045       38.34670
H         24.96821       97.57729       36.53490
H         23.30955       97.79811       37.14674
H         24.12150       96.33318       34.52498
H         23.54121       98.01511       34.65698
H         21.27013       98.17010       36.09270
H         20.07032       97.02261       35.50108
N         22.50288       93.79146       37.29278
C         21.32176       93.05748       37.77837
C         20.33044       92.63996       36.69030
O         19.29972       92.09701       37.06074
C         21.74696       91.78569       38.58734
C         22.53450       92.14559       39.85289
C         22.53912       90.77140       37.73801
H         23.15686       93.29681       36.67110
H         20.73530       93.70276       38.46891
H         20.82438       91.27199       38.93931
H         22.77674       91.22732       40.43078
H         23.47908       92.65070       39.60607
H         21.93601       92.81729       40.50251
H         23.50334       91.19292       37.38801
H         22.76386       89.86383       38.33803
H         21.94603       90.44973       36.85639
N         20.55691       92.81751       35.35545
C         19.62689       92.33194       34.33043
C         20.27179       91.28442       33.44493
O         19.58369       90.81877       32.54057
C         19.15479       93.47537       33.40139
C         18.37449       94.56829       34.07156
N         17.21889       94.30732       34.72336
O         18.76512       95.71942       33.97717
H         21.42725       93.26431       35.04599
H         18.73254       91.85802       34.78905
H         18.48259       93.05397       32.62080
H         20.03823       93.91110       32.88665
H         16.85239       93.34745       34.79018
H         16.68038       95.07535       35.15095
N         21.56149       90.86173       33.59076
C         22.17299       90.00608       32.58377
C         23.48331       89.38876       33.00681
O         24.27007       90.02137       33.69758
C         22.36729       90.79932       31.25404
C         23.11783       92.11949       31.41541
C         22.43453       93.33389       31.21502
C         24.48470       92.17197       31.75315
C         23.08941       94.55985       31.37519
C         25.13598       93.39780       31.92161
C         24.44224       94.59509       31.73672
O         25.08599       95.76864       31.90116
H         22.13031       91.17919       34.39047
H         21.48828       89.14686       32.40049
H         21.35786       91.02107       30.85260
H         22.86801       90.16805       30.48880
H         21.38822       93.33566       30.93961
H         25.06447       91.27533       31.88185
H         22.54301       95.48154       31.22050
H         26.18464       93.41582       32.19339
H         24.64348       96.62087       31.78006
N         23.82616       88.19312       32.44066
C         25.14107       87.56742       32.44111
C         25.54072       86.88679       33.74493
O         26.11745       85.80970       33.66499
C         26.18711       88.51955       31.82727
C         27.42981       87.78633       31.30348
C         28.30519       88.71898       30.51343
O         29.58214       88.92730       30.88245
O         27.86839       89.27359       29.51588
H         23.12722       87.74251       31.82779
H         25.05189       86.73152       31.70802
H         26.46991       89.32368       32.53999
H         25.70156       88.99168       30.94301
H         27.11607       86.96880       30.61727
H         27.99632       87.34325       32.14881
N         25.24444       87.39769       34.97624
C         25.59303       86.70496       36.21182
C         24.83633       85.39295       36.35285
O         25.19797       84.60135       37.21328
C         25.27412       87.56677       37.45659
C         25.88756       88.97521       37.46452
C         27.38326       88.97131       37.40724
O         27.97327       88.59098       36.40947
O         28.07821       89.44042       38.45380
H         24.75776       88.28859       35.05199
H         26.68316       86.48912       36.18261
H         25.61824       87.02788       38.36820
H         24.17112       87.69324       37.53164
H         25.56204       89.46313       38.40459
H         25.49817       89.60170       36.63800
N         23.74515       85.11119       35.58386
C         23.00286       83.88040       35.72320
H         22.13945       83.88299       35.02407
H         23.65746       83.01732       35.48191
H         22.61884       83.78456       36.76092
H         23.40051       85.79275       34.89290
Ca        30.30825       89.69147       38.39300
O         31.39652       87.61274       36.66300
H         30.64415       87.44836       36.04115
H         32.21039       87.46170       36.12054
O         32.52980       92.04643       38.11839
H         33.44102       91.95814       38.49491
H         32.66979       92.15216       37.14415
O         30.18264       90.83293       35.66577
H         29.20309       90.83778       35.52579
H         30.50984       91.60098       35.13653

Ca 1.0



