%chk=apoCaM-CA-Ng.loop2.water2.frame869.chk
%nprocshared=20
%mem=10GB
%nosave
#b3lyp/svp scf=(tight,noincore,xqc) Test 
#IOP(5/87=12) Density=Current Pop=(MK,readradii) iop(6/33=2) iop(6/42=6)

apoCaM-CA-Ng.loop2.water2.frame869 

   -2  1 
C         55.69246       27.76955       -8.58473
C         54.63941       28.09182       -9.60253
O         54.24137       27.21195      -10.35282
H         56.58499       28.40713       -8.75232
H         55.29270       27.96168       -7.56621
H         55.99298       26.70214       -8.65169
N         54.12759       29.35207       -9.67291
C         53.06573       29.73132      -10.60012
C         51.83490       28.88704      -10.32097
O         51.34388       28.22213      -11.22113
C         52.75254       31.23722      -10.45418
C         51.72253       31.69917      -11.44666
O         51.93540       31.60095      -12.64484
O         50.56595       32.23919      -11.01798
H         54.50060       30.06250       -9.02288
H         53.41709       29.55745      -11.64230
H         53.68231       31.82191      -10.62702
H         52.39983       31.45700       -9.42291
N         51.32704       28.84242       -9.05861
C         50.21310       27.99879       -8.63123
C         49.98959       28.24430       -7.14607
O         50.93932       28.06463       -6.39437
C         50.52578       26.50885       -8.84862
H         51.79032       29.43374       -8.35019
H         49.31839       28.24810       -9.23160
H         51.44596       26.21266       -8.30173
H         49.67876       25.88748       -8.48805
H         50.66588       26.27581       -9.92283
N         48.81852       28.68350       -6.60500
C         47.53521       28.78867       -7.29909
C         46.60129       29.76252       -6.58878
O         46.93653       30.28367       -5.53495
C         46.87487       27.38651       -7.42239
C         46.98095       26.62315       -6.13095
O         48.08210       26.25778       -5.74778
O         45.91806       26.34754       -5.35970
H         48.82353       28.83752       -5.58363
H         47.67146       29.25356       -8.29566
H         47.39192       26.77770       -8.19299
H         45.81445       27.48523       -7.73684
N         45.43024       30.12144       -7.18954
C         44.52352       31.12616       -6.65897
C         43.08142       30.71026       -6.85672
O         42.41458       31.35342       -7.65494
H         45.22362       29.74218       -8.12674
H         44.68391       32.04607       -7.26265
H         44.74074       31.39435       -5.60598
N         42.49579       29.64836       -6.23364
C         43.11955       28.81555       -5.21354
C         43.22975       29.61560       -3.92297
O         42.20623       30.01466       -3.38350
C         42.24995       27.54865       -5.03281
C         42.78936       26.48374       -4.12035
N         42.09356       25.33339       -3.97984
O         43.84284       26.63311       -3.52273
H         41.52840       29.42247       -6.51876
H         44.11313       28.48097       -5.58024
H         42.14146       27.07439       -6.03325
H         41.23703       27.83779       -4.67597
H         41.20994       25.18664       -4.48918
H         42.43539       24.58298       -3.37120
N         44.44601       29.94113       -3.40279
C         44.60690       30.80803       -2.24434
C         44.27397       30.14692       -0.92415
O         44.34395       30.82657        0.08938
H         45.29221       29.63205       -3.89471
H         43.99717       31.72641       -2.38957
H         45.67111       31.12212       -2.17437
N         43.97039       28.82174       -0.84293
C         43.74579       28.11272        0.41127
C         44.85719       27.09521        0.61794
O         45.72148       26.96299       -0.23862
C         42.34738       27.44183        0.39195
C         41.23463       28.49248        0.37348
O         42.20204       26.61279       -0.73344
H         43.94879       28.25981       -1.70055
H         43.79488       28.80694        1.27899
H         42.18967       26.84384        1.31768
H         42.78250       25.82140       -0.59093
H         40.24326       27.99097        0.37584
H         41.30144       29.13540        1.27748
H         41.30448       29.13260       -0.53125
N         44.90382       26.35053        1.75987
C         45.94610       25.36976        2.03455
C         45.30062       24.00054        2.07290
O         44.87790       23.53978        3.12382
C         46.72793       25.75217        3.32451
C         47.76441       24.68154        3.76639
C         47.41195       27.12135        3.13815
C         48.82681       24.33816        2.72277
H         44.16853       26.48001        2.47123
H         46.68951       25.35177        1.21213
H         46.00280       25.85339        4.16228
H         47.23839       23.74058        4.03141
H         48.27430       25.03661        4.68800
H         46.66099       27.91085        2.92614
H         47.95658       27.41151        4.06119
H         48.12989       27.10136        2.29120
H         49.42293       25.22596        2.43306
H         49.52246       23.58285        3.14198
H         48.34583       23.90092        1.82856
N         45.12780       23.33085        0.90039
C         44.44790       22.04703        0.79552
C         45.19535       20.92459        1.48757
O         44.56144       19.90503        1.74119
C         44.27065       21.63892       -0.68108
C         43.60153       22.70997       -1.48640
O         42.36068       23.12652       -1.16993
O         44.19534       23.21820       -2.42424
H         45.43942       23.79046        0.03668
H         43.44304       22.16798        1.25943
H         43.66440       20.70971       -0.74956
H         45.27289       21.43578       -1.12283
N         46.54424       20.96642        1.71934
C         47.26223       19.83656        2.30590
C         48.77809       20.02141        2.21808
O         49.27658       20.99662        2.76994
C         46.82785       19.62460        3.78217
C         47.32214       18.30864        4.35161
C         48.68790       18.07719        4.60430
C         46.39840       17.28476        4.63543
C         49.11726       16.84679        5.10826
C         46.83259       16.05674        5.14119
C         48.19129       15.83642        5.37400
H         47.08070       21.79249        1.40906
H         46.96070       18.93224        1.73771
H         45.72113       19.61053        3.82256
H         47.14908       20.47471        4.42221
H         49.42820       18.84065        4.41912
H         45.34019       17.43000        4.45576
H         50.17010       16.67761        5.29282
H         46.11420       15.27450        5.34920
H         48.52610       14.88388        5.76290
N         49.59844       19.09990        1.61680
C         51.05615       19.11639        1.69495
C         51.72796       20.02443        0.66936
O         52.94200       19.95319        0.54949
C         51.41439       17.64375        1.45886
C         50.38891       17.23442        0.42702
C         49.12551       17.87390        0.99108
H         51.42650       19.38657        2.70919
H         52.47502       17.44531        1.19498
H         51.18201       17.07600        2.39043
H         50.65536       17.74186       -0.52767
H         50.30430       16.14268        0.24089
H         48.39981       18.05105        0.16891
H         48.67398       17.23101        1.77832
N         51.02335       20.91507       -0.08468
C         51.64009       21.77376       -1.10099
C         52.74748       22.68529       -0.57875
O         53.43169       23.27568       -1.40438
C         50.55026       22.63228       -1.77814
C         49.93472       23.64518       -0.79052
C         48.68868       24.23830       -1.35637
O         48.71279       24.92147       -2.50605
O         47.62528       24.05266       -0.79886
H         50.00429       20.95848        0.03980
H         52.09047       21.09625       -1.86026
H         49.76250       21.93950       -2.14958
H         50.95941       23.18051       -2.65586
H         50.66469       24.44543       -0.54148
H         49.66370       23.13246        0.15204
N         52.96825       22.88029        0.75400
C         54.01765       23.73695        1.26892
H         54.63461       24.18873        0.46362
H         53.56423       24.55642        1.86425
H         54.68653       23.14138        1.92453
H         52.36300       22.42557        1.45103
Ca        46.74986       25.47993       -3.46305
O         47.51689       28.39053       -2.64632
H         48.41793       27.99522       -2.75599
H         47.60965       29.31434       -2.98919
O         47.42009       22.83955       -4.53581
H         47.22575       22.05744       -3.96101
H         48.40771       22.91098       -4.53553

Ca 1.0



