%chk=apoCaM-CA-Ng.loop1.water4.frame604.chk
%nprocshared=20
%mem=10GB
%nosave
#b3lyp/svp scf=(tight,noincore,xqc) Test 
#IOP(5/87=12) Density=Current Pop=(MK,readradii) iop(6/33=2) iop(6/42=6)

apoCaM-CA-Ng.loop1.water4.frame604 

   0  1 
C         45.77175        2.72984      -14.47529
C         45.15758        2.89580      -15.83084
O         45.53967        2.22939      -16.78241
H         46.67114        3.37623      -14.43057
H         45.07352        3.10776      -13.69343
H         46.00392        1.67436      -14.24541
N         44.18421        3.82144      -15.96361
C         43.52485        4.17616      -17.20029
C         44.41941        4.91414      -18.18323
O         45.44078        5.48341      -17.82346
C         42.28198        5.05499      -16.89202
C         42.58078        6.33001      -16.11316
O         43.01181        6.30014      -14.83505
O         42.36984        7.41218      -16.62556
H         43.88132        4.26868      -15.09935
H         43.18270        3.23763      -17.69300
H         41.56078        4.45235      -16.30332
H         41.78332        5.32328      -17.84982
N         43.98082        4.99020      -19.46569
C         44.51996        5.84538      -20.51415
C         43.39553        6.23583      -21.44485
O         42.55669        5.40331      -21.76696
C         45.65408        5.21520      -21.33382
C         45.40334        3.75395      -21.73949
C         46.45813        3.27396      -22.74138
C         46.56701        1.74228      -22.76037
N         47.65171        1.32092      -23.64896
H         43.10225        4.48946      -19.66625
H         44.91092        6.78597      -20.06758
H         46.59492        5.24870      -20.74480
H         45.81090        5.86298      -22.22361
H         44.39964        3.59181      -22.18533
H         45.48580        3.16498      -20.80106
H         47.45111        3.65861      -22.42833
H         46.23133        3.67658      -23.75470
H         45.61145        1.24982      -23.05632
H         46.80716        1.41035      -21.72556
H         47.96569        0.35953      -23.38450
H         47.32247        1.32429      -24.64086
H         48.47374        1.96160      -23.55606
N         43.32177        7.50795      -21.91919
C         42.20190        7.97611      -22.71545
C         42.67156        8.44163      -24.11062
O         42.38970        9.57814      -24.46462
C         41.49132        9.10357      -21.90355
C         41.05807        8.68552      -20.50622
O         40.15655        7.87837      -20.34845
O         41.67044        9.20985      -19.42143
H         44.06579        8.17965      -21.67253
H         41.46271        7.16324      -22.87548
H         40.60241        9.47481      -22.45518
H         42.21026        9.94288      -21.78993
N         43.33691        7.63850      -25.00729
C         43.71050        6.25365      -24.75189
C         44.11628        5.49718      -26.01244
O         45.05966        4.71978      -25.97686
H         43.54410        8.03565      -25.93857
H         42.82475        5.73410      -24.34906
H         44.54002        6.22827      -24.01813
N         43.39008        5.64207      -27.15376
C         43.73210        5.04260      -28.44667
C         44.93408        5.74690      -29.05095
O         45.71581        5.11296      -29.75064
C         42.50674        5.09093      -29.39740
C         41.88313        6.45745      -29.50626
O         40.63996        6.65642      -29.02647
O         42.50001        7.39319      -29.98708
H         42.59923        6.29805      -27.11562
H         43.96767        3.96003      -28.32295
H         41.74229        4.40780      -28.96832
H         42.74902        4.71097      -30.41617
N         45.13602        7.07487      -28.79757
C         46.22703        7.86033      -29.33381
C         47.39930        7.90487      -28.38098
O         47.93703        8.97997      -28.15525
H         44.45927        7.57564      -28.21089
H         45.85185        8.89637      -29.49621
H         46.53567        7.48046      -30.33003
N         47.83381        6.76857      -27.76464
C         48.99024        6.71190      -26.87897
C         48.60680        6.75658      -25.40710
O         47.58699        6.21066      -25.00828
C         49.90551        5.50750      -27.20808
C         49.23455        4.14269      -26.96305
O         50.32636        5.56106      -28.54917
H         47.30539        5.90513      -27.91939
H         49.61784        7.61355      -27.05791
H         50.79723        5.56773      -26.54352
H         50.70042        6.46618      -28.71688
H         49.94259        3.32320      -27.20964
H         48.93343        4.01801      -25.90189
H         48.33939        4.00779      -27.60265
N         49.40883        7.46729      -24.56046
C         49.14001        7.76747      -23.15651
C         48.40102        9.09320      -23.07733
O         47.61974        9.27314      -22.15169
C         50.49664        7.84901      -22.38624
C         51.32964        6.54351      -22.47075
C         50.36293        8.31274      -20.92675
C         50.67462        5.28555      -21.89352
H         50.23745        7.91891      -24.97324
H         48.44178        7.00651      -22.73536
H         51.10345        8.63659      -22.88908
H         52.28887        6.70600      -21.93146
H         51.57476        6.33885      -23.53315
H         51.37740        8.46086      -20.49489
H         49.85152        9.29592      -20.86053
H         49.81260        7.57255      -20.31748
H         51.39967        4.44768      -21.98248
H         50.42416        5.41006      -20.82080
H         49.76236        5.00485      -22.45961
N         48.52437       10.02368      -24.06994
C         47.62492       11.15515      -24.20868
C         48.32221       12.50888      -24.17751
O         49.46438       12.65140      -24.59153
C         46.84293       10.97082      -25.53093
C         45.90926        9.76223      -25.45207
O         46.06993       12.10427      -25.81812
H         49.20030        9.87277      -24.83118
H         46.89178       11.17047      -23.37330
H         47.59126       10.81656      -26.34552
H         45.97907       12.13274      -26.80753
H         45.18291        9.90852      -24.62383
H         45.34576        9.67580      -26.40377
H         46.47111        8.82174      -25.27859
N         47.56205       13.57798      -23.79847
C         47.94221       14.98901      -23.82426
C         47.54413       15.68774      -22.51036
O         48.32531       16.46411      -21.97753
C         47.19057       15.63126      -25.01748
C         47.68996       17.04374      -25.35044
O         45.81088       15.65299      -24.74445
H         46.58193       13.36002      -23.58267
H         49.03912       15.09303      -23.99247
H         47.37358       14.99434      -25.91354
H         45.34516       16.02827      -25.53358
H         48.75014       17.02600      -25.68691
H         47.08079       17.44512      -26.18786
H         47.59069       17.72306      -24.48083
N         46.30005       15.48144      -21.97576
C         45.79124       16.04466      -20.73108
C         45.04820       14.96480      -19.95354
O         44.48543       14.04234      -20.52853
C         44.89960       17.28329      -21.01977
C         44.13840       17.83527      -19.79523
C         43.27696       19.06878      -20.11964
C         44.15176       20.29649      -20.40759
N         43.37280       21.53353      -20.37944
H         45.66450       14.84145      -22.46154
H         46.64310       16.37216      -20.09414
H         44.13731       17.02810      -21.78354
H         45.56792       18.07583      -21.42034
H         44.84739       18.10070      -18.97950
H         43.44738       17.05609      -19.40837
H         42.66568       19.27251      -19.21434
H         42.57369       18.87630      -20.96366
H         44.65186       20.18793      -21.39445
H         44.93220       20.36151      -19.61891
H         44.02679       22.34139      -20.49556
H         42.66966       21.54602      -21.15158
H         42.88949       21.63208      -19.45589
N         45.05184       15.03335      -18.60081
C         44.40487       14.08604      -17.70001
C         44.82853       12.57734      -17.81198
O         43.73435       11.89030      -18.35402
C         44.65448       14.54194      -16.25964
C         44.07194       13.58320      -15.21927
C         42.63902       13.21715      -15.47570
O         41.68792       14.16315      -15.58747
O         42.33951       12.04216      -15.60257
H         45.51706       15.85553      -18.18412
H         43.30530       14.15594      -17.89099
H         44.23587       15.56498      -16.12580
H         45.75157       14.59333      -16.07994
H         44.18534       14.04224      -14.22105
H         44.67361       12.64948      -15.23841
N         46.01548       12.28987      -18.62788
C         47.29676       12.75112      -18.09080
H         48.07465       12.53535      -18.85761
H         47.29823       13.84232      -17.91640
H         47.59281       12.20851      -17.16434
H         46.09430       11.25038      -18.65512
Ca        42.65197       10.03040      -17.53820
O         44.71357        9.86925      -15.24651
H         45.00406        8.93216      -15.11503
H         44.80826       10.28715      -14.35394
O         45.06785        9.05000      -18.47677
H         45.98558        8.72481      -18.30437
H         45.06777        9.32090      -19.42980
O         40.71770       11.79951      -18.12968
H         41.09226       12.41420      -18.80762
H         40.62589       12.35143      -17.31582
O         40.33009        9.75110      -15.51644
H         39.56017       10.20894      -15.09502
H         40.92830        9.52164      -14.76131

Ca 1.0



