%chk=apoCaM-CA-Ng.loop2.water4.frame1372.chk
%nprocshared=20
%mem=10GB
%nosave
#b3lyp/svp scf=(tight,noincore,xqc) Test 
#IOP(5/87=12) Density=Current Pop=(MK,readradii) iop(6/33=2) iop(6/42=6)

apoCaM-CA-Ng.loop2.water4.frame1372 

   -2  1 
C          4.60308       45.36311       55.54163
C          6.07846       45.61399       55.75268
O          6.69693       46.05808       54.79634
H          4.12137       46.31677       55.23973
H          4.47651       44.62933       54.71855
H          4.03498       44.98352       56.40352
N          6.76227       45.38906       56.91714
C          6.21824       44.84625       58.16292
C          6.85789       43.51193       58.54446
O          6.39262       42.92434       59.51158
C          6.30103       45.90122       59.29726
C          7.69072       46.35159       59.65716
O          8.75266       45.79488       59.06060
O          7.85416       47.21938       60.49891
H          7.76417       45.62939       56.90218
H          5.14921       44.61691       58.05743
H          5.81633       45.49949       60.21341
H          5.72820       46.79550       58.96978
N          7.88106       42.94442       57.82910
C          8.38446       41.59896       58.09643
C          9.83386       41.56439       58.56451
O         10.30204       40.46701       58.83758
C          8.20903       40.74991       56.83076
H          8.29410       43.44607       57.03035
H          7.79132       41.11597       58.90313
H          8.53170       39.70175       57.00934
H          7.13922       40.73403       56.53060
H          8.80687       41.16984       55.99306
N         10.60033       42.68776       58.71886
C         11.96918       42.64302       59.24459
C         12.06537       43.41543       60.55571
O         11.10095       44.04906       60.96332
C         12.97806       43.13945       58.17687
C         12.75041       44.57422       57.79647
O         12.36313       44.86270       56.67538
O         12.86634       45.53310       58.73016
H         10.20437       43.60824       58.48253
H         12.25024       41.59479       59.48296
H         12.86578       42.49559       57.27655
H         14.02005       43.03038       58.54422
N         13.20600       43.35895       61.29850
C         13.36277       44.03173       62.57998
C         13.51631       45.53057       62.44845
O         13.48304       46.06016       61.34750
H         13.98117       42.76278       60.97179
H         14.29805       43.66492       63.05502
H         12.51467       43.77448       63.25131
N         13.74087       46.28015       63.56548
C         14.00551       47.71954       63.52267
C         15.28945       48.01308       62.76102
O         16.01832       47.09230       62.41404
C         14.12928       48.27660       64.96219
C         12.84599       48.19510       65.75798
N         12.85323       48.49203       67.07740
O         11.79761       47.86598       65.22285
H         13.74032       45.79830       64.47838
H         13.16945       48.22746       62.99853
H         14.44312       49.34263       64.95519
H         14.91750       47.69256       65.48662
H         13.73005       48.75010       67.55328
H         11.98424       48.44178       67.62975
N         15.62467       49.30017       62.45875
C         16.83806       49.65347       61.73894
C         16.86247       49.10009       60.32510
O         15.90490       48.45886       59.91702
H         15.00165       50.06558       62.75822
H         17.71108       49.27260       62.31038
H         16.90832       50.76108       61.67383
N         17.92087       49.29106       59.48612
C         19.13900       50.02314       59.82211
C         19.32958       51.24234       58.92042
O         20.35448       51.89543       59.04883
C         20.35209       49.06589       59.76448
C         20.19676       47.91669       60.77206
O         20.50079       48.54998       58.46713
H         17.86607       48.87421       58.54244
H         19.10396       50.42143       60.85657
H         21.26021       49.64973       60.04642
H         21.43742       48.22795       58.39394
H         19.30835       47.29413       60.53324
H         21.09613       47.26644       60.75064
H         20.08413       48.32012       61.80152
N         18.36517       51.64750       58.03831
C         18.44009       52.86454       57.23159
C         17.31464       53.79233       57.69605
O         16.17549       53.34578       57.67517
C         18.27637       52.52612       55.71723
C         19.39767       51.56720       55.24105
C         18.27464       53.82284       54.88345
C         19.25924       51.14170       53.77479
H         17.49325       51.10518       57.95925
H         19.42506       53.35385       57.33559
H         17.29563       52.02080       55.56903
H         19.36376       50.64141       55.85388
H         20.39254       52.04306       55.38404
H         17.45364       54.48917       55.20984
H         19.24076       54.36164       54.98768
H         18.08499       53.62166       53.81185
H         18.27206       50.66287       53.60239
H         19.37545       52.00230       53.08510
H         20.05780       50.41350       53.52275
N         17.48742       55.09593       58.08134
C         18.75992       55.82244       58.10315
C         18.56229       57.33699       58.19965
O         17.44901       57.80058       58.40947
C         19.64924       55.35632       59.29145
C         19.05682       55.58937       60.66282
O         17.95287       56.09067       60.80776
O         19.76322       55.23094       61.75164
H         16.62271       55.61125       58.30602
H         19.27179       55.64901       57.13286
H         20.62603       55.88208       59.24701
H         19.86257       54.28131       59.22154
N         19.63601       58.17093       58.07106
C         19.57097       59.60878       58.30396
C         19.92836       60.39833       57.05111
O         20.97224       60.12953       56.47112
C         20.51472       59.96413       59.47474
C         20.44494       61.43477       59.82997
C         21.05889       62.40571       59.01481
C         19.74696       61.85163       60.97566
C         20.95854       63.76222       59.32907
C         19.64607       63.21167       61.28472
C         20.24836       64.16594       60.46065
H         20.55716       57.76321       57.84699
H         18.55604       59.88298       58.64556
H         21.56899       59.67622       59.26810
H         20.17496       59.35808       60.34400
H         21.61769       62.11891       58.13449
H         19.26372       61.12704       61.61879
H         21.42929       64.49975       58.69166
H         19.09515       63.52625       62.16093
H         20.16632       65.21807       60.69907
N         19.16733       61.45834       56.61877
C         17.94586       61.93041       57.25735
C         16.74792       61.07859       56.86681
O         15.70119       61.22683       57.48050
C         17.82470       63.36774       56.75018
C         18.34364       63.23903       55.33124
C         19.55354       62.32188       55.51996
H         18.04027       61.97269       58.36330
H         16.82036       63.82860       56.86599
H         18.56175       63.99278       57.30595
H         17.56946       62.69211       54.74744
H         18.56699       64.19390       54.81074
H         19.75866       61.76647       54.57931
H         20.45443       62.89408       55.83259
N         16.82700       60.18194       55.84223
C         15.74207       59.29597       55.44227
C         14.52286       60.11094       55.02647
O         14.63123       60.87391       54.07669
C         16.19857       58.41529       54.25439
C         17.37389       57.49049       54.62159
C         17.89702       56.78473       53.40423
O         17.16943       56.05725       52.74810
O         19.17996       56.95680       53.02936
H         17.70306       60.13370       55.30759
H         15.50511       58.62668       56.29350
H         16.50510       59.08257       53.41696
H         15.35089       57.78486       53.90484
H         17.03821       56.75701       55.38295
H         18.21878       58.06035       55.05756
N         13.32145       60.03261       55.66912
C         13.06999       59.19092       56.81987
H         12.01958       59.31824       57.15784
H         13.22796       58.12340       56.55972
H         13.73704       59.47917       57.65916
H         12.54069       60.61387       55.32614
Ca        10.88695       46.42709       59.21608
O          9.57648       49.34333       59.20410
H         10.00230       50.11561       58.75461
H          9.16973       49.72510       60.02236
O         11.85005       49.57526       61.19398
H         11.27659       49.98732       61.88790
H         12.50700       50.27912       60.96416
O         13.07334       48.60589       58.47407
H         13.60920       49.35425       58.83810
H         13.71429       48.08412       57.92894
O         10.26986       46.61801       62.53767
H         10.11669       46.13364       63.38742
H         10.91037       47.33423       62.77275

Ca 1.0



