%chk=apoCaM-CA-Ng.loop4.water4.frame75.chk
%nprocshared=20
%mem=10GB
%nosave
#b3lyp/svp scf=(tight,noincore,xqc) Test 
#IOP(5/87=12) Density=Current Pop=(MK,readradii) iop(6/33=2) iop(6/42=6)

apoCaM-CA-Ng.loop4.water4.frame75 

   -3  1 
C         60.54956       77.39166       57.99451
C         61.66707       78.31329       57.61307
O         62.46950       78.65558       58.46792
H         59.57548       77.87966       57.78322
H         60.62628       76.45248       57.40784
H         60.59857       77.14216       59.07634
N         61.79111       78.73537       56.32211
C         62.84936       79.61496       55.83627
C         64.21762       79.02549       56.08948
O         65.05360       79.68499       56.66770
C         62.64100       81.09900       56.26831
C         62.29179       81.41058       57.71372
O         63.14275       81.28888       58.75941
O         61.17199       81.83808       57.94795
H         61.11573       78.37988       55.62771
H         62.77972       79.64667       54.72441
H         61.75989       81.43495       55.67458
H         63.49481       81.72547       55.93064
N         64.51012       77.77979       55.61556
C         65.79960       77.08940       55.68897
C         66.84385       77.79093       54.82244
O         67.14948       77.26989       53.75841
C         66.26924       76.81237       57.14956
C         67.59960       76.01149       57.20607
C         65.17164       76.10089       57.96164
C         67.55431       74.63089       56.53911
H         63.75164       77.26989       55.13567
H         65.61758       76.10042       55.21295
H         66.45790       77.78046       57.65681
H         67.89081       75.87441       58.27073
H         68.40439       76.60245       56.71943
H         65.51510       75.92918       59.00449
H         64.25867       76.72721       58.01145
H         64.89312       75.12824       57.50741
H         66.80302       73.97474       57.02379
H         67.33186       74.70814       55.45670
H         68.54763       74.14691       56.63005
N         67.43776       78.96136       55.19791
C         68.33760       79.71073       54.33257
C         69.79355       79.27941       54.52417
O         70.36156       78.81567       53.54517
C         68.09611       81.23703       54.46983
C         66.69771       81.67568       54.11257
O         65.84926       80.87574       53.75019
O         66.37675       82.98020       54.20510
H         67.23068       79.36244       56.11602
H         68.08594       79.48570       53.27008
H         68.80431       81.77492       53.80396
H         68.25677       81.58290       55.50101
N         70.50212       79.36273       55.69192
C         69.97027       79.86445       56.94873
C         70.96861       79.86871       58.08307
O         72.09477       79.43470       57.88379
H         71.47838       79.03133       55.65953
H         69.13501       79.21111       57.24325
H         69.67681       80.90454       56.81073
N         70.67191       80.32237       59.33910
C         69.42738       80.90696       59.85843
C         68.18326       79.97708       59.77350
O         67.49008       80.19929       58.58216
C         69.13650       82.31485       59.28803
C         70.31755       83.23032       59.43055
O         70.81634       83.50924       60.64952
O         70.82796       83.72964       58.44025
H         71.42924       80.24294       60.03544
H         69.59542       81.06297       60.94790
H         68.27464       82.75780       59.83136
H         68.84841       82.26576       58.22181
N         68.48677       78.54390       59.85014
C         69.41487       78.04860       60.87512
C         70.42663       77.16008       60.19713
O         70.40604       77.04680       58.97821
H         67.61234       77.97125       59.82827
H         68.86248       77.46616       61.63733
H         69.94597       78.85669       61.41400
N         71.33742       76.46788       60.92887
C         72.32732       75.59514       60.31501
C         71.94896       74.13208       60.49771
O         72.67920       73.28778       59.99595
C         73.75321       75.91713       60.82793
C         74.30419       77.28079       60.34561
C         73.72899       78.52402       60.98501
N         74.13819       79.74109       60.55636
O         72.92131       78.45214       61.89719
H         71.29313       76.51725       61.95911
H         72.34518       75.72854       59.21064
H         74.43192       75.15742       60.38146
H         73.82555       75.82025       61.93300
H         74.16993       77.34063       59.24341
H         75.39588       77.30488       60.55331
H         74.82364       79.82641       59.79130
H         73.76561       80.60191       60.98421
N         70.79121       73.75218       61.12156
C         70.33000       72.36677       61.18041
C         70.26514       71.83999       62.60101
O         69.96302       70.66504       62.75855
C         68.95657       72.21100       60.46780
C         69.06311       72.61055       58.99274
C         67.82967       73.01039       61.14647
H         70.18229       74.46685       61.54121
H         71.05061       71.70360       60.65234
H         68.67226       71.13557       60.49953
H         69.32551       73.68577       58.89501
H         69.84115       72.00415       58.48265
H         68.09434       72.42842       58.48225
H         67.71592       72.70476       62.20762
H         68.02323       74.10083       61.10522
H         66.86389       72.81836       60.63263
N         70.56918       72.62005       63.67858
C         70.63172       72.09663       65.03319
C         69.69214       72.83649       65.96363
O         68.90049       72.18267       66.62916
C         72.08013       72.20479       65.55052
C         73.05555       71.47782       64.65432
N         72.94937       70.14497       64.44092
O         73.95415       72.10487       64.11327
H         70.83431       73.60480       63.54349
H         70.35509       71.01970       65.06256
H         72.14379       71.77291       66.57266
H         72.37534       73.27543       65.60767
H         72.20374       69.59293       64.88800
H         73.61760       69.66069       63.82302
N         69.76949       74.19105       66.11642
C         69.09424       74.90599       67.19470
C         68.12433       75.95657       66.68638
O         68.45048       76.67594       65.75309
C         70.16502       75.58312       68.07666
C         71.23599       74.60419       68.51110
C         70.91075       73.45922       69.25912
C         72.57622       74.82321       68.14581
C         71.90628       72.54666       69.62304
C         73.56953       73.91260       68.51498
C         73.23683       72.76829       69.25247
O         74.18393       71.87656       69.60691
H         70.41676       74.72914       65.52028
H         68.53560       74.20237       67.84875
H         69.68234       76.03243       68.97157
H         70.63667       76.40839       67.49734
H         69.88711       73.26469       69.55116
H         72.85494       75.69575       67.56811
H         71.64205       71.66313       70.19015
H         74.59579       74.09526       68.22186
H         75.11443       71.99160       69.36610
N         66.94810       76.16524       67.35496
C         65.99639       77.24358       67.08382
C         65.21363       77.07843       65.78985
O         64.42289       77.96516       65.49552
C         66.66033       78.64068       67.18971
C         67.25256       78.88370       68.59023
C         67.84411       80.25936       68.75548
O         68.37397       80.60906       69.94285
O         67.84703       81.06577       67.83786
H         66.74067       75.56797       68.16990
H         65.21549       77.21570       67.87728
H         65.88330       79.41771       67.01529
H         67.44282       78.77412       66.41495
H         68.04630       78.13592       68.79858
H         66.44632       78.76692       69.34682
N         65.28827       75.95383       65.01782
C         64.44721       75.75605       63.83812
C         63.43614       74.63635       64.04483
O         62.65624       74.39703       63.13253
C         65.31844       75.45643       62.60380
C         66.35281       76.54786       62.31147
C         65.72630       77.89032       62.06286
O         66.02948       78.92986       62.86267
O         64.94832       78.04754       61.13554
H         65.91898       75.18593       65.28957
H         63.84832       76.66797       63.62352
H         64.66669       75.33663       61.70970
H         65.85916       74.49894       62.76471
H         66.92556       76.24801       61.41043
H         67.06017       76.62139       63.16556
N         63.36458       73.92136       65.20714
C         62.39871       72.86412       65.43161
H         61.72807       72.70533       64.56119
H         62.93524       71.91469       65.63732
H         61.77209       73.12157       66.31104
H         64.00896       74.12015       65.98443
Ca        65.32378       80.74547       59.00747
O         65.97341       83.55190       58.11768
H         65.96483       83.05131       57.26328
H         66.67016       84.24420       57.99466
O         62.60816       80.23531       61.36839
H         62.53146       79.67301       62.17906
H         61.68047       80.31745       61.03132
O         66.48871       82.01115       61.83624
H         67.07020       81.24040       62.05169
H         66.02040       82.21151       62.68490
O         63.91648       83.45943       60.66504
H         63.76582       82.90941       61.47449
H         64.70745       84.01342       60.88343

Ca 1.0



