%chk=apoCaM-CA-Ng.loop4.water4.frame245.chk
%nprocshared=20
%mem=10GB
%nosave
#b3lyp/svp scf=(tight,noincore,xqc) Test 
#IOP(5/87=12) Density=Current Pop=(MK,readradii) iop(6/33=2) iop(6/42=6)

apoCaM-CA-Ng.loop4.water4.frame245 

   -3  1 
C         15.18299       23.19957       84.96007
C         14.30183       24.30744       84.46993
O         13.86027       25.08998       85.29460
H         16.06070       23.63777       85.48237
H         14.61815       22.56808       85.67787
H         15.54417       22.56489       84.12585
N         14.03045       24.46224       83.13873
C         13.22246       25.55030       82.59323
C         13.78625       26.89588       82.97905
O         13.12314       27.65854       83.65024
C         11.69141       25.36704       82.80150
C         11.15446       24.81855       84.10843
O         11.23799       25.44254       85.30336
O         10.55989       23.75227       84.07290
H         14.46551       23.81099       82.46826
H         13.32141       25.54411       81.48290
H         11.38882       24.61904       82.03271
H         11.16401       26.30682       82.52616
N         15.02436       27.24046       82.52385
C         15.73612       28.50212       82.72472
C         15.08030       29.67362       81.98868
O         15.68948       30.16080       81.04545
C         16.04617       28.80414       84.21644
C         16.98485       30.03432       84.36410
C         16.65453       27.57515       84.91707
C         18.37096       29.87587       83.71354
H         15.52579       26.53203       81.96413
H         16.71447       28.33923       82.22629
H         15.09698       29.04366       84.74347
H         17.12869       30.24186       85.44613
H         16.49448       30.92614       83.91976
H         16.88509       27.81092       85.97398
H         15.93748       26.73097       84.91480
H         17.58294       27.23467       84.41478
H         18.31467       29.69950       82.62356
H         18.94387       30.81477       83.82712
H         18.94475       29.05291       84.18930
N         13.85674       30.17934       82.32967
C         13.21122       31.23686       81.56631
C         13.89519       32.58287       81.80696
O         14.41010       33.11881       80.83584
C         11.67325       31.25364       81.78622
C         10.97694       29.99749       81.32089
O         11.59840       29.06083       80.84312
O          9.63824       29.90843       81.43803
H         13.33832       29.79481       83.12101
H         13.31722       30.99772       80.48196
H         11.24252       32.10313       81.21365
H         11.39898       31.36345       82.84394
N         13.97559       33.22861       83.01259
C         13.41228       32.74359       84.26635
C         13.54829       33.73217       85.41745
O         14.15992       34.77448       85.23368
H         14.46466       34.13615       83.00803
H         13.89924       31.78343       84.53586
H         12.34695       32.62129       84.12358
N         13.02231       33.51338       86.66389
C         12.22577       32.37480       87.11271
C         12.96439       31.05692       86.90996
O         12.46746       30.20912       86.18302
C         10.79399       32.42896       86.51014
C          9.84177       31.47901       87.18702
O          9.23256       30.64804       86.53441
O          9.61575       31.57608       88.51129
H         13.20546       34.23429       87.38031
H         12.06277       32.49760       88.20653
H         10.78185       32.22567       85.42648
H         10.38676       33.44993       86.66989
N         14.14463       30.76809       87.53680
C         14.82539       31.64904       88.47053
C         15.63947       32.70845       87.77289
O         16.02547       32.52204       86.62705
H         14.55387       29.83582       87.39177
H         15.55299       31.05980       89.06837
H         14.10495       32.07436       89.20080
N         15.95273       33.85972       88.42966
C         16.74825       34.92400       87.82080
C         18.20979       34.51834       87.66204
O         18.94511       35.25035       87.01180
C         16.71347       36.19957       88.69103
C         15.29383       36.75603       88.91242
C         15.28083       37.93948       89.85288
N         14.10441       38.50737       90.20215
O         16.32216       38.38021       90.31962
H         15.58857       33.98225       89.38588
H         16.31108       35.16183       86.82539
H         17.32590       36.99425       88.20782
H         17.16528       35.95675       89.67891
H         14.64678       35.97871       89.36543
H         14.85093       37.05296       87.93680
H         13.21453       38.14343       89.83146
H         14.08237       39.30388       90.85621
N         18.71910       33.41487       88.28682
C         20.12871       33.03845       88.25534
C         20.75633       33.07652       89.63915
O         21.93675       32.76931       89.72657
C         20.31725       31.62095       87.65566
C         19.88751       31.58719       86.19618
C         19.58397       30.52770       88.45377
H         18.09451       32.83127       88.85906
H         20.71185       33.75078       87.62847
H         21.40391       31.37915       87.67019
H         20.46237       32.33083       85.60417
H         20.10415       30.57849       85.78846
H         18.80515       31.81079       86.09973
H         19.91877       30.52084       89.51263
H         18.48443       30.67164       88.42709
H         19.80934       29.53161       88.01946
N         20.06174       33.45178       90.75792
C         20.68358       33.47432       92.07671
C         19.92018       32.66854       93.13670
O         20.49227       32.50401       94.20654
C         20.96436       34.94382       92.46981
C         19.73686       35.82032       92.49706
N         18.78361       35.64007       93.43174
O         19.61402       36.71666       91.67528
H         19.09451       33.79025       90.67490
H         21.68395       32.99133       92.02480
H         21.65689       35.35462       91.70020
H         21.48918       35.00095       93.44748
H         18.90306       34.91526       94.14603
H         17.94610       36.23988       93.45566
N         18.65680       32.15382       92.95914
C         17.95513       31.40046       94.00891
C         17.25893       30.13375       93.50620
O         16.49346       30.20399       92.55415
C         16.83461       32.22625       94.68253
C         17.23584       33.43015       95.49648
C         18.31810       33.39401       96.39769
C         16.45590       34.59646       95.41629
C         18.62407       34.51161       97.17932
C         16.75153       35.70373       96.21505
C         17.83677       35.66820       97.09510
O         18.10671       36.74488       97.85986
H         18.14422       32.35107       92.08809
H         18.65798       31.10933       94.81575
H         16.36914       31.55821       95.43204
H         16.04616       32.49098       93.94289
H         18.93326       32.51200       96.50316
H         15.60060       34.64167       94.75364
H         19.46624       34.47248       97.85887
H         16.12955       36.58741       96.15426
H         18.84215       36.75752       98.48875
N         17.33051       28.99004       94.25721
C         16.46133       27.81209       94.12638
C         16.61946       27.00626       92.85035
O         15.95412       25.98348       92.74540
C         14.97012       28.16581       94.34126
C         14.69775       28.76630       95.72599
C         13.22757       28.99805       95.92543
O         12.57642       28.37077       96.92364
O         12.61594       29.75419       95.18740
H         17.96704       28.98641       95.06933
H         16.73918       27.10775       94.94408
H         14.37248       27.22906       94.27320
H         14.61430       28.85324       93.54528
H         15.23006       29.72634       95.84243
H         15.06311       28.06765       96.50984
N         17.51180       27.32939       91.87901
C         17.78136       26.44459       90.75458
C         18.98569       25.61501       91.12309
O         18.87931       24.39570       91.14539
C         17.98758       27.25138       89.45690
C         16.71142       27.98327       88.99884
C         15.62272       27.05754       88.50617
O         14.56281       27.52631       88.13072
O         15.80667       25.72454       88.43317
H         18.12973       28.14118       92.01165
H         16.94531       25.73056       90.59374
H         18.32697       26.58396       88.63418
H         18.78760       27.99868       89.63716
H         16.97420       28.66050       88.15926
H         16.32562       28.61167       89.82989
N         20.14821       26.20783       91.50468
C         21.27211       25.43670       91.98266
H         22.09647       26.11761       92.27992
H         20.96594       24.84677       92.87485
H         21.62884       24.74978       91.18819
H         20.22625       27.23558       91.50069
Ca        12.23890       27.30487       86.10250
O          9.81206       28.32090       84.54137
H         10.43202       28.90179       84.03382
H         10.01839       28.51267       85.48965
O          9.70834       26.23558       87.85353
H          9.83258       25.29245       87.57898
H          8.80914       26.47574       87.51665
O         12.62267       25.28066       88.52638
H         12.85193       25.78904       89.34454
H         12.28489       24.41287       88.86101
O         11.63470       28.46035       88.79511
H         11.00704       29.22446       88.76851
H         12.03030       28.49266       89.70159

Ca 1.0



