%chk=apoCaM-CA-Ng.loop4.water3.frame36.chk
%nprocshared=20
%mem=10GB
%nosave
#b3lyp/svp scf=(tight,noincore,xqc) Test 
#IOP(5/87=12) Density=Current Pop=(MK,readradii) iop(6/33=2) iop(6/42=6)

apoCaM-CA-Ng.loop4.water3.frame36 

   -3  1 
C         51.91974       76.95916       49.81355
C         50.93798       78.03339       49.45643
O         50.21185       78.46824       50.33620
H         52.59621       77.33494       50.61055
H         51.37535       76.06825       50.18979
H         52.53455       76.66192       48.93887
N         50.88465       78.53824       48.18910
C         49.99964       79.62140       47.77285
C         50.22999       80.86386       48.60829
O         49.28755       81.41322       49.14275
C         48.52128       79.15470       47.59725
C         47.87316       78.26292       48.64499
O         47.56367       78.64364       49.90657
O         47.56555       77.12890       48.31122
H         51.54809       78.17653       47.48697
H         50.30705       79.93678       46.74899
H         48.53392       78.54248       46.66572
H         47.86768       80.02420       47.37842
N         51.49370       81.37540       48.71098
C         51.89560       82.57240       49.45326
C         51.28020       83.82761       48.83315
O         51.99705       84.50396       48.10812
C         51.67789       82.40777       50.98460
C         52.05120       83.66426       51.81196
C         52.40279       81.16043       51.52194
C         53.52801       84.05803       51.76699
H         52.24840       80.87249       48.21839
H         52.99455       82.66531       49.29773
H         50.60999       82.23170       51.14960
H         51.77829       83.48009       52.87296
H         51.44831       84.52818       51.46276
H         52.04442       80.24765       51.00687
H         53.49830       81.22901       51.36541
H         52.19767       81.03479       52.60627
H         53.67922       84.96422       52.39028
H         54.16820       83.25302       52.18162
H         53.84515       84.29296       50.73118
N         49.98485       84.21063       49.05578
C         49.34695       85.31223       48.34137
C         49.10018       86.57486       49.18626
O         49.42632       87.62397       48.64603
C         48.10038       84.82823       47.57425
C         48.44034       83.76421       46.56257
O         47.85065       82.55641       46.62946
O         49.23339       83.99661       45.66334
H         49.40612       83.68107       49.71445
H         50.02353       85.66550       47.52830
H         47.65286       85.68486       47.02335
H         47.34790       84.41972       48.26708
N         48.61168       86.67432       50.46766
C         48.23247       85.63246       51.40982
C         46.87505       85.02231       51.13244
O         46.26977       85.36878       50.12989
H         48.58003       87.62929       50.85990
H         48.13001       86.11031       52.40782
H         49.05403       84.90607       51.49960
N         46.26675       84.13750       51.98575
C         46.77575       83.68408       53.29018
C         48.18493       83.05189       53.15033
O         48.45903       82.59149       51.85715
C         45.69360       82.81114       53.98982
C         45.39815       81.49821       53.33134
O         44.29258       81.28512       52.86053
O         46.31257       80.51330       53.35187
H         45.34065       83.78774       51.69123
H         46.89763       84.57330       53.94572
H         44.76118       83.41807       54.02551
H         45.94414       82.59147       55.04007
N         48.73119       82.16829       54.19419
C         48.78965       82.70177       55.56825
C         49.72039       83.87162       55.79989
O         50.35389       84.37063       54.88126
H         49.70622       81.91043       53.91574
H         49.13402       81.87943       56.23123
H         47.79102       83.00003       55.92079
N         49.80298       84.37598       57.06592
C         50.57428       85.56077       57.42574
C         52.06102       85.28496       57.61066
O         52.77747       86.23875       57.88540
C         49.97859       86.20829       58.70295
C         50.23873       85.40767       59.99279
C         49.51118       86.01153       61.16389
N         48.15830       85.99798       61.21018
O         50.14557       86.48529       62.09471
H         49.19520       83.94896       57.78116
H         50.43483       86.31465       56.61855
H         48.88679       86.33746       58.53610
H         50.41452       87.22284       58.84358
H         51.33040       85.41540       60.19552
H         49.91438       84.35177       59.89346
H         47.61000       85.57508       60.44677
H         47.65698       86.38840       62.02145
N         52.60264       84.03008       57.50158
C         54.02077       83.76655       57.73905
C         54.21787       82.70491       58.81999
O         55.01944       81.79955       58.64205
C         54.75734       83.43618       56.40805
C         54.71066       84.64045       55.45558
C         54.18795       82.19418       55.69838
H         52.00316       83.23366       57.24588
H         54.51026       84.67691       58.15127
H         55.82931       83.24794       56.64279
H         53.66522       84.87854       55.16510
H         55.15821       85.53352       55.94266
H         55.29297       84.42422       54.53517
H         54.24319       81.29625       56.34578
H         53.12998       82.35184       55.40262
H         54.77612       81.98228       54.78080
N         53.55164       82.80235       60.00503
C         53.82143       81.93624       61.15380
C         52.64236       81.04617       61.54478
O         52.80088       80.29540       62.50156
C         54.38093       82.79047       62.32830
C         53.55076       83.97795       62.77774
N         53.13223       84.09122       64.05845
O         53.31149       84.88523       61.99525
H         52.85153       83.54708       60.10620
H         54.63169       81.21517       60.91153
H         55.35957       83.20600       62.00345
H         54.58709       82.12140       63.19210
H         53.34101       83.36315       64.75550
H         52.60997       84.92841       64.35906
N         51.46142       81.02170       60.85832
C         50.33589       80.15649       61.22195
C         49.83451       79.32331       60.04669
O         49.49063       79.88453       59.01448
C         49.18093       81.02950       61.74004
C         49.52538       81.65411       63.06857
C         49.70746       83.03635       63.17554
C         49.65692       80.85368       64.21791
C         50.02123       83.61701       64.40621
C         49.96657       81.43420       65.45112
C         50.15286       82.82048       65.54813
O         50.45635       83.39631       66.72861
H         51.32597       81.66640       60.06396
H         50.60973       79.45652       62.04180
H         48.26095       80.42518       61.89281
H         48.95069       81.80134       60.97191
H         49.61437       83.65701       62.30202
H         49.50933       79.78203       64.16168
H         50.16481       84.68757       64.47045
H         50.05900       80.80668       66.32879
H         50.55435       82.88109       67.54201
N         49.65595       77.97467       60.19892
C         48.94806       77.09013       59.26809
C         49.64390       76.83286       57.94031
O         49.07135       76.09389       57.14992
C         47.49458       77.57240       59.01663
C         46.66939       77.77890       60.29664
C         46.53013       76.52173       61.10722
O         46.98084       76.48606       62.37573
O         45.99725       75.53364       60.62754
H         49.93966       77.54668       61.09469
H         48.87553       76.08948       59.75171
H         46.96552       76.82414       58.38475
H         47.50498       78.52547       58.44907
H         45.65382       78.12753       60.01048
H         47.13768       78.56979       60.91601
N         50.87907       77.32148       57.63098
C         51.54403       76.99928       56.36883
C         52.67014       75.99706       56.57388
O         53.28340       75.61564       55.58551
C         52.06176       78.28271       55.68487
C         50.98728       79.34305       55.38154
C         49.93648       78.87217       54.40985
O         49.83542       79.40019       53.31456
O         49.07499       77.89646       54.75063
H         51.39639       77.88256       58.32283
H         50.84834       76.48972       55.67086
H         52.55960       78.01342       54.72641
H         52.82548       78.74893       56.34508
H         51.51189       80.21904       54.94028
H         50.49788       79.68243       56.31828
N         52.97285       75.48554       57.80408
C         53.99153       74.47784       58.01861
H         54.76069       74.87313       58.71307
H         53.52258       73.57970       58.47374
H         54.48994       74.16657       57.07676
H         52.45782       75.79458       58.64000
Ca        47.86903       80.50821       51.14714
O         44.68585       78.49393       51.06821
H         44.85783       79.46246       50.95923
H         44.31962       78.40786       51.98409
O         45.56421       81.89881       49.53715
H         46.40429       82.37554       49.32111
H         45.62802       81.04737       49.03605
O         47.14241       76.88767       52.21005
H         47.18892       77.71994       52.74449
H         47.99772       76.42433       52.39401

Ca 1.0



