%chk=apoCaM-CA-Ng.loop1.water3.frame324.chk
%nprocshared=20
%mem=10GB
%nosave
#b3lyp/svp scf=(tight,noincore,xqc) Test 
#IOP(5/87=12) Density=Current Pop=(MK,readradii) iop(6/33=2) iop(6/42=6)

apoCaM-CA-Ng.loop1.water3.frame324 

   0  1 
C         39.04449       83.02993       63.92022
C         38.45444       84.24765       63.26738
O         39.07502       84.80571       62.37403
H         40.01476       83.28944       64.39056
H         38.37136       82.62283       64.70551
H         39.20372       82.23895       63.15772
N         37.23445       84.70674       63.65543
C         36.57017       85.84889       63.03685
C         37.19998       87.19323       63.41409
O         36.63788       88.19229       63.01088
C         35.07076       85.88179       63.44511
C         34.29762       84.67543       62.96995
O         34.59500       83.44173       63.41985
O         33.37121       84.81630       62.18690
H         36.73457       84.18329       64.38998
H         36.58872       85.73528       61.93089
H         34.59362       86.77384       62.98149
H         34.97106       85.97568       64.54838
N         38.31726       87.34233       64.18411
C         38.71923       88.65179       64.70993
C         40.02425       89.16304       64.13934
O         40.94605       88.36595       64.03648
C         38.81256       88.57225       66.24032
C         37.43290       88.28125       66.84376
C         37.44279       88.48014       68.35747
C         36.03607       88.28106       68.93089
N         36.00908       88.59212       70.35791
H         38.85660       86.51916       64.48465
H         37.95552       89.40099       64.48884
H         39.16526       89.55369       66.61892
H         39.55312       87.80651       66.56187
H         37.10899       87.24964       66.58161
H         36.69806       88.99978       66.41757
H         37.76866       89.52234       68.57146
H         38.15747       87.77524       68.83555
H         35.71178       87.22952       68.76598
H         35.32215       88.95496       68.40534
H         36.66843       87.96833       70.87652
H         36.27707       89.59273       70.50706
H         35.03925       88.44726       70.71974
N         40.26150       90.48467       63.81937
C         39.37063       91.66025       63.91777
C         38.84550       91.91045       65.32417
O         37.76600       91.43478       65.64505
C         38.23252       91.68804       62.87267
C         38.74524       91.70625       61.47056
O         40.06693       91.69908       61.21999
O         37.95424       91.69338       60.54251
H         41.21774       90.69973       63.49426
H         39.97730       92.55173       63.65180
H         37.62991       92.60854       63.01275
H         37.55603       90.82154       62.97824
N         39.49418       92.68964       66.23465
C         40.74910       93.39510       65.98523
C         41.25062       94.12208       67.22683
O         40.62674       94.01738       68.27380
H         39.03787       92.77587       67.15514
H         40.59378       94.13745       65.17578
H         41.52348       92.66147       65.67299
N         42.39273       94.86647       67.24237
C         43.25489       95.12717       66.09622
C         42.71909       96.27126       65.25140
O         42.50753       97.36131       65.76508
C         44.71882       95.41334       66.52295
C         44.93554       96.61979       67.40688
O         45.60474       97.55649       67.00216
O         44.46026       96.65172       68.66628
H         42.66350       95.25207       68.15501
H         43.33478       94.20311       65.48246
H         45.30991       95.55168       65.58887
H         45.13035       94.52219       67.04324
N         42.54036       96.09467       63.91538
C         42.11999       97.14086       63.00126
C         40.70004       97.58137       63.23125
O         40.44524       98.77652       63.28348
H         42.76182       95.17615       63.50242
H         42.15205       96.72396       61.97124
H         42.82345       98.00285       63.03346
N         39.71167       96.65149       63.32577
C         38.29290       96.97420       63.32912
C         37.67692       96.68249       64.68155
O         37.78357       95.56691       65.17368
C         37.58992       96.15851       62.22086
C         38.13945       96.51019       60.83541
O         36.21106       96.42336       62.24113
H         39.97480       95.65411       63.34417
H         38.13415       98.05191       63.10154
H         37.77422       95.07542       62.42270
H         35.75480       95.60656       61.90766
H         37.63237       95.89412       60.06368
H         37.95791       97.58365       60.61310
H         39.22965       96.31142       60.77906
N         36.96849       97.66282       65.31819
C         36.29937       97.48884       66.60635
C         35.27661       96.34874       66.59883
O         34.88624       95.92689       67.67639
C         35.67900       98.84959       67.08445
C         35.13761       98.77193       68.53580
C         34.58280       99.35751       66.11599
C         34.81678      100.14346       69.13975
H         36.92375       98.58459       64.86140
H         37.09658       97.20083       67.32815
H         36.51532       99.58449       67.08503
H         35.91232       98.31065       69.18482
H         34.22226       98.14374       68.57629
H         34.22061      100.36256       66.40853
H         34.95809       99.46719       65.08005
H         33.71937       98.66010       66.09686
H         34.46669      100.01325       70.18534
H         35.72903      100.77740       69.15190
H         34.01509      100.66842       68.58370
N         34.80821       95.79322       65.43893
C         33.89247       94.65296       65.41798
C         34.48439       93.49202       64.63045
O         35.52134       93.63914       64.00404
C         32.50810       95.07310       64.86201
C         32.55924       95.57110       63.41284
O         31.96498       96.08928       65.66435
H         35.09868       96.18876       64.53795
H         33.73071       94.27924       66.45209
H         31.82162       94.19435       64.87228
H         31.64813       95.65741       66.50065
H         32.95971       94.78537       62.73965
H         31.53373       95.82799       63.07276
H         33.18686       96.48143       63.32258
N         33.86340       92.27791       64.65911
C         34.35862       91.09528       63.95259
C         34.24895       91.24748       62.43146
O         33.76146       92.26302       61.95301
C         33.60609       89.82146       64.45048
C         32.10688       89.80738       64.11340
O         33.77587       89.70415       65.84083
H         33.03301       92.18933       65.26061
H         35.42709       90.94668       64.22043
H         34.06630       88.93524       63.96282
H         33.71103       88.73831       66.06516
H         31.56633       90.64394       64.59947
H         31.94947       89.86743       63.01737
H         31.65746       88.85651       64.47143
N         34.62835       90.21948       61.61824
C         34.40239       90.15986       60.18361
C         35.67736       89.77864       59.42726
O         36.06385       90.51537       58.53208
C         33.26806       89.14299       59.96318
C         32.74355       89.09964       58.52556
C         31.50881       88.19004       58.45504
C         30.89971       88.17154       57.05013
N         29.71342       87.31612       57.01211
H         34.97660       89.36730       62.05241
H         34.03505       91.14242       59.81060
H         32.42064       89.46283       60.61041
H         33.58231       88.12726       60.29183
H         33.53608       88.73091       57.83913
H         32.44778       90.12709       58.21880
H         30.73843       88.56590       59.16560
H         31.79142       87.15675       58.75363
H         31.65181       87.79460       56.32294
H         30.61216       89.20667       56.75870
H         29.97026       86.33380       57.26333
H         28.99067       87.67164       57.68007
H         29.31359       87.32637       56.04637
N         36.37676       88.64044       59.73126
C         37.56998       88.18612       59.01208
C         37.34035       86.77636       58.50969
O         37.09518       85.88746       59.31375
C         38.81412       88.24673       59.92818
C         40.10101       87.62963       59.32430
C         40.48478       88.09822       57.93399
O         40.54604       87.28024       57.03026
O         40.81316       89.37860       57.66617
H         36.04669       88.05384       60.51057
H         37.78497       88.85114       58.14791
H         38.61226       87.71043       60.88161
H         38.99485       89.30411       60.18402
H         39.95686       86.52770       59.28180
H         40.94701       87.81822       60.02068
N         37.43643       86.50054       57.17925
C         37.26750       85.17375       56.62385
H         36.43654       85.18793       55.88909
H         38.20257       84.87348       56.10564
H         37.03981       84.41334       57.40011
H         37.65589       87.26237       56.52039
Ca        40.67302       90.97670       59.21170
O         42.08636       93.21544       56.74040
H         42.09578       94.11934       56.33597
H         41.66535       92.64021       56.05320
O         40.63737       94.55858       59.17422
H         41.15485       95.35099       58.88282
H         39.81424       94.58599       58.62468
O         38.86351       92.34747       57.14478
H         38.49340       91.60399       56.60639
H         38.37273       92.29894       58.00270

Ca 1.0



