%chk=apoCaM-CA-Ng.loop1.water2.frame886.chk
%nprocshared=20
%mem=10GB
%nosave
#b3lyp/svp scf=(tight,noincore,xqc) Test 
#IOP(5/87=12) Density=Current Pop=(MK,readradii) iop(6/33=2) iop(6/42=6)

apoCaM-CA-Ng.loop1.water2.frame886 

   0  1 
C          5.11604       -5.65370       39.19814
C          5.10753       -4.19645       39.56621
O          4.07384       -3.55633       39.43960
H          6.11457       -6.11027       39.37063
H          4.37373       -6.19957       39.81687
H          4.85949       -5.77255       38.12518
N          6.23834       -3.60576       40.03869
C          6.31369       -2.20621       40.44348
C          5.95317       -1.24032       39.30854
O          6.53372       -1.29295       38.23424
C          7.70455       -1.86953       41.02409
C          8.85490       -2.08839       40.07646
O          8.67214       -2.68846       38.88274
O          9.95890       -1.65882       40.36938
H          7.08047       -4.19247       40.14002
H          5.59614       -2.05080       41.27970
H          7.88989       -2.46012       41.94644
H          7.68227       -0.79360       41.31088
N          4.98710       -0.30543       39.51628
C          4.55654        0.67804       38.52252
C          5.68863        1.65642       38.21756
O          6.19696        2.27277       39.14378
C          3.33336        1.46930       39.05630
C          2.13335        0.55507       39.38751
C          0.99024        1.34344       40.04289
C         -0.16118        0.44461       40.53654
N          0.25661       -0.46304       41.61201
H          4.54402       -0.29213       40.44528
H          4.22729        0.15410       37.59717
H          3.01378        2.22180       38.30089
H          3.63692        2.01020       39.97993
H          2.45917       -0.21797       40.10022
H          1.76944        0.04446       38.46904
H          0.59147        2.07274       39.30470
H          1.37891        1.91203       40.91603
H         -0.58688       -0.14019       39.69203
H         -0.96108        1.10865       40.93233
H          0.70638        0.07496       42.38862
H         -0.58449       -0.95396       41.99149
H          0.91350       -1.19366       41.25883
N          6.09267        1.89277       36.93376
C          7.11430        2.89517       36.59094
C          7.11813        3.24237       35.10338
O          6.46901        2.55682       34.32614
C          8.52922        2.44748       37.04776
C          8.94095        1.09133       36.56528
O          9.42332        0.23240       37.47425
O          8.91551        0.79280       35.38199
H          5.59273        1.39485       36.18267
H          6.82827        3.84425       37.09539
H          8.57698        2.45053       38.15682
H          9.31670        3.13332       36.69863
N          7.78210        4.32889       34.60076
C          8.56672        5.30241       35.34811
C          7.93744        6.66936       35.33837
O          6.79151        6.80358       34.94677
H          7.72317        4.49704       33.58910
H          9.57708        5.34653       34.88671
H          8.67390        5.06873       36.41843
N          8.64339        7.71681       35.85012
C          8.16888        9.09545       36.01430
C          7.95407        9.80432       34.67069
O          8.76013       10.65507       34.31363
C          9.21176        9.88130       36.86348
C          9.44678        9.31662       38.24454
O          8.84318        8.33226       38.64308
O         10.34515        9.91023       39.05289
H          9.59189        7.49530       36.19437
H          7.21896        9.11247       36.59241
H          8.86729       10.93069       36.98809
H         10.18830        9.89258       36.32945
N          6.87493        9.52915       33.87959
C          6.64983       10.15211       32.58240
C          6.76572        9.16115       31.44039
O          6.67194        9.58794       30.30011
H          6.16610        8.85930       34.19807
H          7.40740       10.94090       32.38602
H          5.65112       10.63715       32.57353
N          7.03077        7.84029       31.66290
C          7.35899        6.88503       30.61163
C          8.81567        6.47255       30.81950
O          9.36660        6.75841       31.87377
C          6.31679        5.73348       30.61760
C          6.58570        4.64080       29.58154
O          6.24026        5.15156       31.88973
H          7.09173        7.49045       32.62418
H          7.31485        7.38420       29.62012
H          5.33565        6.20847       30.37703
H          5.33321        4.75649       31.98141
H          5.76107        3.89603       29.60749
H          6.63532        5.07588       28.56240
H          7.53000        4.10490       29.81249
N          9.53813        5.90922       29.80661
C         10.98305        5.67462       29.91210
C         11.77134        6.52562       28.91266
O         12.98760        6.58542       29.04407
C         11.29315        4.15112       29.80265
C         12.76548        3.84338       30.18963
C         10.94406        3.59618       28.40620
C         13.05566        2.35121       30.34931
H          9.05622        5.69634       28.92452
H         11.32645        6.00361       30.91604
H         10.64741        3.64668       30.55578
H         12.97935        4.31771       31.17255
H         13.47229        4.25493       29.43994
H         11.57898        4.06816       27.62620
H         11.08709        2.49922       28.36312
H          9.88033        3.77827       28.15637
H         14.10421        2.21709       30.68899
H         12.38002        1.90925       31.11172
H         12.94043        1.80925       29.38984
N         11.17291        7.19471       27.88338
C         11.91660        7.95860       26.88694
C         11.88951        7.22646       25.55724
O         11.28408        6.16563       25.45342
C         11.39864        9.42312       26.79333
C          9.92325        9.55212       26.38279
O         11.63305       10.10606       27.99929
H         10.15754        7.11679       27.74293
H         12.99341        8.01598       27.16020
H         11.98851        9.95094       26.01509
H         11.04744        9.70877       28.69438
H          9.25168        9.11074       27.14750
H          9.66120       10.62693       26.28033
H          9.74305        9.05392       25.40743
N         12.57881        7.72262       24.49737
C         12.73768        7.00239       23.24488
C         13.81392        5.94127       23.41129
O         13.58170        4.79211       23.06619
C         13.07610        7.99306       22.09754
C         13.14938        7.29086       20.73547
O         14.28624        8.66048       22.34972
H         13.08107        8.61646       24.60914
H         11.76939        6.53415       22.95276
H         12.24166        8.73339       22.05903
H         14.26763        9.50164       21.82241
H         13.97445        6.54799       20.71539
H         12.19030        6.77508       20.51521
H         13.33218        8.04014       19.93612
N         15.03254        6.28818       23.91978
C         16.18728        5.39517       23.97341
C         16.69453        5.19512       25.39021
O         16.23459        5.85922       26.30839
C         17.30165        5.98125       23.06672
C         17.83217        7.35164       23.56460
C         18.76429        8.07782       22.58601
C         18.04664        8.45023       21.27461
N         18.85780        9.35739       20.46639
H         15.14753        7.25285       24.25224
H         15.90463        4.39593       23.57600
H         16.85436        6.08329       22.05778
H         18.15795        5.27679       22.98687
H         18.36603        7.20187       24.52836
H         17.00558        8.06063       23.75152
H         19.67472        7.47663       22.37685
H         19.07745        9.01959       23.08958
H         17.08180        8.95531       21.50561
H         17.82965        7.53294       20.68713
H         18.35267        9.55851       19.57297
H         18.99654       10.25843       20.98002
H         19.78381        8.92437       20.24949
N         17.67241        4.27253       25.62095
C         18.30545        4.05410       26.91743
C         17.29008        3.76431       28.02151
O         17.30759        4.50176       28.99710
C         19.39599        2.95702       26.80745
C         20.25026        2.83464       28.07851
C         21.33848        1.81292       27.89728
O         21.39850        0.73816       28.70630
O         22.18069        1.95760       27.02473
H         18.00014        3.71099       24.81954
H         18.83896        4.99546       27.18300
H         20.07364        3.23340       25.96913
H         18.95107        1.96880       26.57173
H         19.60966        2.53896       28.93657
H         20.72254        3.81424       28.30823
N         16.36347        2.76086       27.99347
C         16.13845        1.82695       26.91038
H         15.09332        1.93952       26.55214
H         16.80360        1.97997       26.04623
H         16.27652        0.79165       27.28472
H         15.73780        2.66471       28.80805
Ca         9.94808       -1.92419       37.23153
O          7.06474       -3.64795       36.04263
H          7.53436       -4.46404       35.73604
H          6.17330       -3.69903       35.61455
O          9.05074       -2.00164       33.81348
H          9.92915       -1.56383       33.94516
H          8.90658       -1.97856       32.83408

Ca 1.0



