%chk=apoCaM-CA-Ng.loop3.water2.frame706.chk
%nprocshared=20
%mem=10GB
%nosave
#b3lyp/svp scf=(tight,noincore,xqc) Test 
#IOP(5/87=12) Density=Current Pop=(MK,readradii) iop(6/33=2) iop(6/42=6)

apoCaM-CA-Ng.loop3.water2.frame706 

   0  1 
C         96.37035       70.32338      -12.27443
C         95.66410       69.03035      -12.56194
O         96.01541       68.34214      -13.50861
H         97.17539       70.51522      -13.01387
H         95.64734       71.16425      -12.28585
H         96.83312       70.26320      -11.26379
N         94.68119       68.61375      -11.72302
C         94.06947       67.29376      -11.79243
C         93.16283       67.10397      -13.00940
O         92.22479       67.86912      -13.18195
C         93.30614       67.03494      -10.47725
C         93.01292       65.58865      -10.25257
O         92.42149       65.20215       -9.10987
O         93.36547       64.75257      -11.06279
H         94.45187       69.22468      -10.92241
H         94.89407       66.55613      -11.82254
H         92.37381       67.63879      -10.44093
H         93.95309       67.32925       -9.62336
N         93.38076       66.07157      -13.87960
C         92.53531       65.78520      -15.04326
C         91.26632       65.00728      -14.68533
O         90.38361       64.90898      -15.52600
C         93.32653       65.00766      -16.13402
C         93.82048       63.61305      -15.67989
C         94.52718       62.85092      -16.80754
C         95.05944       61.50386      -16.29012
N         95.69511       60.73662      -17.36022
H         94.17475       65.45556      -13.68523
H         92.23705       66.75874      -15.49197
H         94.20278       65.61665      -16.44767
H         92.66832       64.88122      -17.02220
H         92.95887       63.00286      -15.33500
H         94.53731       63.71249      -14.84211
H         95.37963       63.45182      -17.19378
H         93.80680       62.67545      -17.63639
H         94.22202       60.90727      -15.86442
H         95.80204       61.68796      -15.48115
H         94.99491       60.51417      -18.10464
H         96.49104       61.27657      -17.77067
H         96.06214       59.84048      -16.96495
N         91.15570       64.34830      -13.49843
C         90.03721       63.49244      -13.10969
C         89.41169       63.91636      -11.77750
O         88.46183       63.26578      -11.36090
C         90.50855       62.01294      -13.08013
C         91.80390       61.81421      -12.32911
O         92.78109       61.36295      -12.90414
O         91.91725       62.24042      -11.06129
H         91.94517       64.39009      -12.85314
H         89.21562       63.54857      -13.85868
H         90.67233       61.68312      -14.13011
H         89.70603       61.37086      -12.65618
N         89.82712       65.01546      -11.07928
C         89.14204       65.49357       -9.88714
C         89.25357       64.61668       -8.64668
O         88.58797       64.94810       -7.67927
H         90.58565       65.60261      -11.45089
H         88.06682       65.62734      -10.13869
H         89.54082       66.49500       -9.61131
N         90.09422       63.53783       -8.55596
C         90.20054       62.74409       -7.32363
C         91.43986       61.83786       -7.30552
O         91.97790       61.51525       -8.34415
C         88.92039       61.89041       -7.16598
C         88.88059       61.10323       -5.88232
N         88.88581       59.74944       -5.90284
O         88.84394       61.69402       -4.81357
H         90.70210       63.32760       -9.34887
H         90.32538       63.45987       -6.48089
H         88.86658       61.20026       -8.03729
H         88.01362       62.52922       -7.19561
H         88.92505       59.23298       -6.79388
H         88.86201       59.21308       -5.02326
N         91.92480       61.37142       -6.11574
C         93.07256       60.47984       -5.97558
C         94.38042       61.12939       -6.37575
O         94.66175       62.21067       -5.87723
H         91.44703       61.65092       -5.24794
H         92.89761       59.53088       -6.52413
H         93.16938       60.22991       -4.89581
N         95.27538       60.49034       -7.19788
C         96.58242       61.06483       -7.53767
C         96.45317       62.20342       -8.57958
O         95.38385       63.03466       -8.28220
C         97.54587       60.01004       -8.13231
C         97.98359       58.92794       -7.17327
C         97.78005       57.57453       -7.49009
C         98.66133       59.25684       -5.98456
C         98.25379       56.56963       -6.63991
C         99.12774       58.25043       -5.13300
C         98.93291       56.90503       -5.45966
O         99.41063       55.94651       -4.64011
H         95.05173       59.53600       -7.51750
H         97.03692       61.47053       -6.60710
H         98.48423       60.51541       -8.44799
H         97.08340       59.57279       -9.04489
H         97.27479       57.29424       -8.40560
H         98.84588       60.29035       -5.72118
H         98.10319       55.53096       -6.90570
H         99.65504       58.51695       -4.22517
H         99.31862       55.00411       -4.84085
N         97.72720       62.94914       -8.71044
C         97.78020       64.15005       -9.58051
C         97.32098       63.82187      -10.99510
O         96.20256       63.36534      -11.16890
C         97.04238       65.40432       -8.99370
C         97.22546       66.66788       -9.88312
C         97.47926       65.71694       -7.54787
C         98.65783       67.19174      -10.03062
H         98.15620       63.14548       -7.77829
H         98.85246       64.43185       -9.62972
H         95.95094       65.21399       -8.97297
H         96.60542       67.49014       -9.46254
H         96.85092       66.45337      -10.89912
H         96.96036       66.62553       -7.17545
H         97.20719       64.89334       -6.85754
H         98.57596       65.87904       -7.48553
H         99.08510       67.48453       -9.05114
H         99.31884       66.44558      -10.51033
H         98.64485       68.09183      -10.68128
N         98.11975       64.09644      -12.06723
C         97.71057       63.83695      -13.44648
C         98.82863       63.28455      -14.32842
O         98.54705       62.98583      -15.48175
C         97.18648       65.14099      -14.06074
O         98.20147       66.10659      -14.14634
H         98.98742       64.61993      -11.89340
H         96.87509       63.10150      -13.45689
H         96.34316       65.52129      -13.45036
H         96.78424       64.95591      -15.08003
H         98.17869       66.62704      -13.30127
N        100.12342       63.18336      -13.90396
C        101.21231       62.80216      -14.79933
C        101.10892       61.34325      -15.21912
O        100.41249       60.59936      -14.54167
C        102.54676       63.02359      -14.07606
H        100.37004       63.45252      -12.94372
H        101.17595       63.47793      -15.67413
H        103.40148       62.76327      -14.71245
H        102.64545       64.09101      -13.78368
H        102.60154       62.39574      -13.16085
N        101.80637       60.80190      -16.26563
C        102.56438       61.53456      -17.28625
C        103.41815       60.55268      -18.08490
O        102.85512       59.58129      -18.57271
C        101.60198       62.23091      -18.26142
H        101.73866       59.77655      -16.36914
H        103.19902       62.30430      -16.83037
H        100.94791       61.48662      -18.76422
H        100.94828       62.96538      -17.75768
H        102.18314       62.77456      -19.03775
N        104.75944       60.69434      -18.31407
C        105.59913       61.83189      -17.94160
C        105.71565       61.99223      -16.44031
O        105.44992       63.07851      -15.94503
C        107.00263       61.66122      -18.57149
C        107.89282       62.89998      -18.39125
C        109.21687       62.70078      -19.07226
O        109.55837       63.44062      -19.98133
O        110.03607       61.70578      -18.68104
H        105.20386       59.94572      -18.87066
H        105.15791       62.75255      -18.38675
H        106.87460       61.49837      -19.66516
H        107.50444       60.76446      -18.14485
H        108.07343       63.09883      -17.31391
H        107.37925       63.78279      -18.83312
N        106.12139       60.96053      -15.65214
C        106.22941       61.09288      -14.21499
H        106.96694       61.88299      -13.95914
H        105.24105       61.35714      -13.78211
H        106.56309       60.13254      -13.76894
H        106.34710       60.05045      -16.08045
Ca        93.87320       62.47678       -9.91149
O         93.45371       59.37424      -10.05154
H         92.90464       59.17934       -9.25132
H         94.26626       58.82106       -9.93459
O         95.60393       60.63021      -11.96966
H         96.56974       60.74258      -11.78314
H         95.57044       60.18805      -12.85461

Ca 1.0



