%chk=apoCaM-CA-Ng.loop3.water4.frame178.chk
%nprocshared=20
%mem=10GB
%nosave
#b3lyp/svp scf=(tight,noincore,xqc) Test 
#IOP(5/87=12) Density=Current Pop=(MK,readradii) iop(6/33=2) iop(6/42=6)

apoCaM-CA-Ng.loop3.water4.frame178 

   0  1 
C         55.74483       33.07070       31.53917
C         54.30747       32.80072       31.20690
O         53.55721       32.45644       32.10681
H         56.32506       33.35479       30.63554
H         55.81021       33.89478       32.27879
H         56.19834       32.15302       31.96936
N         53.85912       32.95521       29.92629
C         52.50878       32.68733       29.43297
C         51.71027       31.69050       30.26409
O         50.56575       31.94278       30.61283
C         51.78858       34.01693       29.13341
C         51.61580       34.86440       30.36365
O         50.85822       34.43231       31.38857
O         52.15465       35.95726       30.43320
H         54.52575       33.30986       29.22301
H         52.62957       32.15671       28.46184
H         50.79400       33.82418       28.67686
H         52.39653       34.58106       28.39165
N         52.25905       30.47595       30.53737
C         51.53388       29.38028       31.15771
C         52.23875       28.97892       32.44263
O         52.84691       27.91963       32.50951
C         51.41292       28.24503       30.11578
C         50.70449       28.77018       28.84316
C         50.56224       27.74394       27.71706
C         49.61186       26.59439       28.06750
N         49.44017       25.70561       26.91923
H         53.22331       30.28641       30.22087
H         50.49208       29.66647       31.42638
H         50.83245       27.41109       30.56349
H         52.42419       27.87283       29.84071
H         51.30444       29.60265       28.41702
H         49.70068       29.17246       29.10395
H         51.56402       27.35006       27.43901
H         50.14419       28.27902       26.83540
H         48.62063       27.01154       28.35488
H         50.01408       26.01286       28.92373
H         50.36220       25.30003       26.63776
H         48.79035       24.92980       27.18012
H         49.02879       26.23406       26.11509
N         52.14871       29.79603       33.53168
C         52.78320       29.53114       34.81877
C         51.74252       28.97617       35.78425
O         50.68112       29.56456       35.92583
C         53.48073       30.82088       35.30967
C         54.17928       30.60233       36.61874
O         53.53066       30.41616       37.62777
O         55.51667       30.53774       36.69468
H         51.54975       30.63410       33.46001
H         53.58182       28.76447       34.70426
H         52.75933       31.66147       35.41374
H         54.23768       31.10487       34.54682
N         51.97016       27.79331       36.43344
C         50.96056       27.08718       37.21332
C         50.43094       27.78670       38.45505
O         49.40604       27.33753       38.94706
H         52.87270       27.31554       36.29044
H         51.35255       26.09387       37.52648
H         50.10241       26.90048       36.53442
N         51.05948       28.84247       39.04584
C         50.51596       29.56124       40.20171
C         50.32912       31.05458       39.91475
O         49.95038       31.78667       40.81846
C         51.36305       29.29600       41.46412
C         52.72785       29.93009       41.47177
N         53.05952       30.80971       42.44382
O         53.54988       29.63508       40.61883
H         51.96367       29.13556       38.67485
H         49.50961       29.16402       40.45412
H         51.47149       28.19829       41.60068
H         50.79073       29.67611       42.33903
H         52.39299       31.06637       43.18813
H         53.99581       31.22746       42.45449
N         50.51620       31.56505       38.66364
C         50.28922       32.94996       38.29793
C         51.32512       33.87562       38.87445
O         50.96395       34.86368       39.49738
H         50.77979       30.94150       37.89535
H         49.25627       33.26025       38.56938
H         50.38192       33.03559       37.19206
N         52.64603       33.63585       38.64506
C         53.71144       34.56529       38.99032
C         54.64801       33.96504       40.00277
O         55.21461       32.91447       39.72890
C         54.53377       34.88888       37.72242
C         53.66844       35.42067       36.61506
C         52.97127       36.62504       36.78156
C         53.54211       34.70817       35.40972
C         52.14880       37.10564       35.76399
C         52.71554       35.19068       34.39229
C         52.01297       36.39298       34.57141
O         51.20262       36.87916       33.61323
H         52.90766       32.77491       38.14600
H         53.29367       35.51114       39.39828
H         55.03685       33.95746       37.37545
H         55.33003       35.62830       37.96040
H         53.06067       37.18965       37.70020
H         54.07561       33.77700       35.26033
H         51.61053       38.03335       35.90344
H         52.62226       34.62762       33.47322
H         51.06305       36.42402       32.77591
N         54.91139       34.61482       41.17444
C         55.96533       34.18243       42.07972
C         55.35451       33.70350       43.37924
O         55.53479       32.54117       43.70584
C         57.01462       35.31819       42.30086
C         57.42500       36.05713       40.99665
C         58.27048       34.77903       43.01570
C         58.06196       35.17977       39.91826
H         54.39409       35.47753       41.40386
H         56.50937       33.32708       41.63028
H         56.55342       36.09828       42.94571
H         58.14099       36.86802       41.25546
H         56.52990       36.54740       40.55672
H         58.97922       35.60786       43.22543
H         58.02757       34.28984       43.96977
H         58.78555       34.01310       42.40417
H         58.99819       34.70771       40.27468
H         57.35731       34.39493       39.59227
H         58.30973       35.80708       39.03643
N         54.61858       34.53070       44.18109
C         54.03725       34.06600       45.44324
C         55.10641       33.60010       46.42529
O         54.78149       32.86446       47.34624
C         53.18922       35.16100       46.10608
O         52.12045       35.53118       45.27570
H         54.46765       35.50499       43.88078
H         53.37844       33.19961       45.20674
H         53.82390       36.04367       46.35887
H         52.76612       34.78676       47.06270
H         52.42633       36.30114       44.72935
N         56.40738       33.97384       46.26630
C         57.52889       33.51222       47.06902
C         57.65420       31.99700       47.02308
O         57.76523       31.36487       48.06501
C         57.44666       34.06864       48.49477
H         56.63483       34.63126       45.51370
H         58.45472       33.92954       46.61214
H         58.35227       33.77742       49.06830
H         57.39863       35.17774       48.45891
H         56.54885       33.68760       49.02310
N         57.62731       31.34692       45.82523
C         57.79212       29.90394       45.68755
C         58.84486       29.59777       44.64597
O         59.25468       30.50055       43.92753
C         56.46214       29.26714       45.27491
H         57.47439       31.90111       44.97192
H         58.10865       29.45932       46.65555
H         56.56620       28.16477       45.18383
H         55.69004       29.47976       46.04447
H         56.11562       29.67539       44.30051
N         59.33905       28.32966       44.50954
C         60.27943       27.93167       43.46186
C         61.60366       28.70027       43.50784
O         62.41623       28.48813       42.61799
C         59.59652       28.08564       42.08238
C         58.30774       27.24722       41.98409
C         57.56874       27.59532       40.73063
O         57.37138       26.75317       39.87011
O         57.11614       28.85437       40.57089
H         59.00745       27.59655       45.15465
H         60.52293       26.85256       43.58474
H         60.28463       27.76529       41.26831
H         59.36153       29.15432       41.91036
H         57.62326       27.46469       42.83012
H         58.56849       26.16562       42.01164
N         61.90308       29.59435       44.49925
C         63.11522       30.38651       44.52781
H         63.77287       30.19391       43.65538
H         62.84118       31.46361       44.52342
H         63.67770       30.16619       45.45818
H         61.25879       29.74460       45.28508
Ca        56.26395       29.70126       38.65896
O         54.32473       27.51862       38.39282
H         53.78532       27.23339       39.17168
H         55.17103       27.01357       38.47299
O         57.67914       32.32402       37.90481
H         58.61287       32.30818       38.23317
H         57.58610       33.20364       37.46076
O         58.67649       28.69249       37.44530
H         58.37224       28.95009       36.53946
H         58.05524       27.96950       37.71059
O         58.05104       31.47348       40.78726
H         58.80268       32.11404       40.83869
H         57.92965       31.15543       41.71642

Ca 1.0



