%chk=apoCaM-CA-Ng.loop1.water3.frame772.chk
%nprocshared=20
%mem=10GB
%nosave
#b3lyp/svp scf=(tight,noincore,xqc) Test 
#IOP(5/87=12) Density=Current Pop=(MK,readradii) iop(6/33=2) iop(6/42=6)

apoCaM-CA-Ng.loop1.water3.frame772 

   0  1 
C         55.89713       93.45487       -8.56367
C         56.72940       94.70054       -8.58635
O         57.52953       94.85234       -9.49906
H         55.29056       93.39497       -9.49036
H         56.56931       92.57185       -8.51009
H         55.21953       93.43382       -7.68495
N         56.61272       95.63771       -7.60141
C         57.45016       96.83636       -7.55774
C         58.92850       96.46185       -7.45720
O         59.23862       95.29039       -7.28021
C         57.02099       97.75589       -6.38481
C         57.20259       97.11617       -5.02848
O         57.72127       95.87500       -4.93171
O         56.89998       97.73013       -4.01778
H         55.90876       95.48745       -6.86189
H         57.29326       97.39342       -8.50771
H         55.94942       98.02577       -6.51539
H         57.61156       98.69675       -6.41284
N         59.89868       97.40864       -7.59288
C         61.32153       97.08592       -7.57873
C         62.00827       97.87775       -6.48126
O         61.95318       99.09929       -6.51003
C         61.91641       97.40522       -8.95718
C         63.35799       96.88481       -9.09391
C         63.99646       97.25662      -10.43981
C         64.27333       98.76625      -10.54912
N         64.93972       99.08992      -11.80801
H         59.61915       98.38767       -7.76022
H         61.46918       95.99774       -7.40140
H         61.84933       98.49955       -9.11688
H         61.30404       96.90468       -9.74092
H         63.32671       95.77491       -9.01377
H         64.00201       97.26836       -8.27402
H         63.34858       96.91330      -11.27661
H         64.96866       96.72266      -10.51410
H         64.92621       99.07534       -9.70216
H         63.32967       99.34654      -10.49087
H         64.32024       98.84306      -12.61352
H         65.13560      100.11689      -11.83219
H         65.84461       98.57103      -11.88151
N         62.66844       97.23664       -5.47400
C         63.27078       97.93053       -4.32546
C         64.01673       96.95531       -3.40757
O         63.85765       95.75401       -3.57579
C         62.14144       98.63896       -3.52504
C         61.04652       97.68169       -3.11938
O         59.91135       97.84396       -3.53550
O         61.30720       96.64616       -2.29851
H         62.71681       96.20980       -5.53228
H         64.01022       98.66590       -4.70771
H         61.69415       99.44180       -4.14451
H         62.51924       99.13317       -2.61691
N         64.82801       97.33880       -2.37567
C         65.29214       98.67550       -2.02690
C         66.35447       99.20601       -2.96562
O         66.59590       98.63393       -4.01844
H         65.18059       96.58493       -1.77011
H         65.80807       98.58115       -1.04563
H         64.47516       99.40023       -1.87523
N         67.08868      100.29158       -2.58351
C         68.20861      100.82455       -3.35785
C         69.27827       99.75221       -3.51565
O         69.60631       99.38933       -4.63608
C         68.83338      102.06701       -2.67084
C         67.88855      103.23824       -2.57442
O         68.16454      104.28972       -3.12949
O         66.75827      103.15621       -1.84691
H         66.86193      100.72269       -1.67511
H         67.84629      101.13613       -4.36334
H         69.72015      102.38439       -3.26419
H         69.18436      101.81484       -1.64695
N         69.85228       99.19464       -2.41404
C         70.85419       98.14151       -2.44666
C         70.32017       96.85500       -3.03355
O         71.00630       96.22918       -3.82872
H         69.55570       99.52497       -1.48326
H         71.13602       97.91746       -1.39610
H         71.77337       98.47719       -2.97506
N         69.08412       96.40840       -2.68067
C         68.50041       95.14723       -3.12715
C         67.82819       94.48332       -1.94089
O         67.05974       95.14473       -1.25649
C         67.44967       95.38451       -4.23531
C         68.08422       95.97413       -5.50032
O         66.85020       94.15604       -4.56567
H         68.50485       97.02013       -2.08459
H         69.26973       94.46998       -3.56182
H         66.67985       96.08216       -3.84728
H         65.98176       94.36281       -5.00024
H         68.54971       96.95752       -5.29115
H         68.85847       95.28373       -5.90016
H         67.30617       96.11801       -6.27983
N         68.00020       93.15966       -1.67261
C         67.25896       92.51025       -0.59265
C         67.77966       92.95131        0.76883
O         67.03464       92.85582        1.73392
C         67.22456       90.96331       -0.76897
C         66.64745       90.54575       -2.15542
C         66.43868       90.26500        0.35843
C         65.22572       91.04350       -2.45294
H         68.60284       92.60232       -2.29557
H         66.20558       92.86198       -0.65459
H         68.26857       90.58194       -0.71965
H         66.65340       89.43652       -2.22259
H         67.30488       90.91571       -2.96856
H         66.92180       90.43177        1.34215
H         65.39331       90.63321        0.41279
H         66.42813       89.16710        0.19426
H         64.50055       90.67737       -1.69890
H         65.18696       92.15168       -2.49596
H         64.90707       90.66711       -3.44732
N         69.02814       93.48363        0.91534
C         69.52921       93.99940        2.18521
C         70.78408       93.26273        2.62935
O         71.28811       92.41821        1.90359
C         69.73998       95.53232        2.07575
C         70.74812       95.93244        0.99154
O         68.51454       96.15497        1.78660
H         69.64750       93.54154        0.09565
H         68.78097       93.83086        2.99030
H         70.12759       95.92882        3.04155
H         67.96406       96.10618        2.61185
H         70.39499       95.63519       -0.01797
H         70.86722       97.03604        0.98759
H         71.73859       95.47038        1.18299
N         71.30568       93.51885        3.86447
C         72.46495       92.83086        4.42622
C         72.01614       92.00086        5.61634
O         72.25133       90.79832        5.61784
C         73.57370       93.84843        4.79811
C         74.85490       93.14019        5.25109
O         73.15597       94.71870        5.81887
H         70.82700       94.21574        4.45195
H         72.90512       92.14097        3.67169
H         73.84516       94.43242        3.88701
H         72.68139       95.47473        5.38620
H         74.67410       92.53310        6.16369
H         75.23144       92.47493        4.44445
H         75.64092       93.89114        5.47852
N         71.30979       92.56341        6.63827
C         70.77421       91.78442        7.74971
C         69.58764       92.47634        8.40621
O         69.30798       93.63372        8.11429
C         71.89129       91.46358        8.77277
C         72.47638       92.74259        9.40427
C         73.63522       92.43577       10.36091
C         74.19282       93.73312       10.96830
N         75.32734       93.46063       11.85004
H         71.07480       93.56344        6.57072
H         70.35742       90.84046        7.33082
H         72.70322       90.90784        8.25628
H         71.49193       90.80800        9.57696
H         71.67698       93.27699        9.96292
H         72.85510       93.40968        8.59972
H         74.44341       91.91896        9.79855
H         73.28290       91.76839       11.17770
H         73.39256       94.24627       11.54740
H         74.52445       94.41375       10.15246
H         76.10019       93.00750       11.31021
H         75.67773       94.36369       12.24458
H         75.03266       92.83866       12.63730
N         68.80702       91.79158        9.28513
C         67.63341       92.37243        9.92474
C         66.63552       92.90597        8.89022
O         66.35963       94.09562        8.94977
C         67.02396       91.37504       10.93476
C         65.80949       91.95167       11.67445
C         65.36467       91.02808       12.77183
O         65.36977       91.45331       14.04988
O         65.00025       89.89148       12.51548
H         69.05370       90.81059        9.49604
H         67.97583       93.24175       10.53266
H         67.81495       91.14145       11.68200
H         66.74358       90.42009       10.45258
H         64.96929       92.10753       10.96337
H         66.08142       92.93155       12.12251
N         66.06822       92.16678        7.89165
C         66.30585       90.76218        7.64904
H         67.38350       90.57151        7.47337
H         65.92432       90.15131        8.48601
H         65.75157       90.44685        6.73888
H         65.43404       92.65069        7.23571
Ca        58.28824       94.80902       -3.03721
O         57.43740       96.20458       -0.77560
H         57.45520       97.19060       -0.85810
H         57.89167       96.01179        0.08217
O         61.14833       94.03157       -4.81048
H         62.05772       93.83314       -4.47294
H         60.98006       93.33268       -5.49129
O         60.19902       93.51407       -1.14863
H         61.08640       93.87874       -0.90489
H         59.57387       93.92650       -0.50065

Ca 1.0



