%chk=apoCaM-CA-Ng.loop1.water3.frame1129.chk
%nprocshared=20
%mem=10GB
%nosave
#b3lyp/svp scf=(tight,noincore,xqc) Test 
#IOP(5/87=12) Density=Current Pop=(MK,readradii) iop(6/33=2) iop(6/42=6)

apoCaM-CA-Ng.loop1.water3.frame1129 

   0  1 
C         99.26945       64.31292       76.18795
C        100.27659       64.82744       75.20362
O        100.18307       65.98864       74.82987
H         98.25427       64.36356       75.73954
H         99.47903       63.26080       76.47150
H         99.29446       64.94179       77.10193
N        101.25384       64.00989       74.71233
C        102.24228       64.45815       73.73241
C        101.77572       64.17845       72.30989
O        102.54916       63.67036       71.50408
C        103.63550       63.85044       74.04597
C        103.71500       62.33945       73.93222
O        104.88310       61.72096       74.18547
O        102.74842       61.66807       73.60303
H        101.27217       63.03022       75.02859
H        102.34084       65.56415       73.80896
H        103.92737       64.13691       75.07848
H        104.38380       64.28236       73.34629
N        100.50896       64.49067       71.92196
C        100.02652       64.29053       70.56441
C        100.74078       65.25646       69.61817
O        101.36466       64.76590       68.69188
C         98.47972       64.35607       70.47002
C         97.82634       63.28569       71.37190
C         96.29676       63.30216       71.27550
C         95.68186       62.27098       72.23604
N         94.22145       62.28634       72.16293
H         99.85444       64.86500       72.62136
H        100.27269       63.24688       70.25517
H         98.18367       64.15869       69.41629
H         98.08087       65.34906       70.74731
H         98.10588       63.46809       72.43087
H         98.19677       62.27730       71.08159
H         95.98799       63.07277       70.23227
H         95.92354       64.31338       71.54755
H         95.99476       62.50542       73.27859
H         96.05116       61.25216       71.98244
H         93.85838       63.23535       72.41105
H         93.90726       62.02720       71.19981
H         93.83770       61.59077       72.84321
N        100.78107       66.62105       69.77879
C        100.13646       67.39171       70.83759
C        101.16403       67.98975       71.79641
O        102.35989       67.83618       71.56920
C         99.22729       68.47887       70.21492
C        100.00927       69.55014       69.49612
O        100.95632       70.20887       70.18727
O         99.76511       69.84191       68.33861
H        101.35165       67.15255       69.10017
H         99.49972       66.74875       71.45804
H         98.66100       68.97769       71.02901
H         98.48597       68.00736       69.53184
N        100.76733       68.65673       72.91801
C        101.70830       69.18552       73.89799
C        102.34456       70.49894       73.48523
O        101.93369       71.09462       72.50777
H         99.75876       68.71096       73.13482
H        102.47915       68.41433       74.11008
H        101.17201       69.39286       74.84835
N        103.35577       71.02051       74.23688
C        103.99475       72.32182       73.99907
C        103.88864       73.16644       75.27403
O        103.40150       72.63567       76.26309
C        105.46238       72.06677       73.59517
C        105.54841       71.30473       72.30400
O        105.09259       71.78481       71.27836
O        106.14795       70.09994       72.26737
H        103.70087       70.45694       75.02919
H        103.48134       72.86755       73.18539
H        105.97459       71.49888       74.40212
H        106.01828       73.00096       73.43662
N        104.28978       74.47075       75.40233
C        104.84400       75.36437       74.39537
C        103.84517       75.74650       73.33321
O        102.76111       76.19279       73.68224
H        104.18149       74.89029       76.34024
H        105.79553       74.99384       73.98094
H        105.10303       76.31781       74.90696
N        104.17210       75.68014       72.01009
C        103.29065       76.19012       70.95593
C        102.28067       75.10401       70.46636
O        102.51618       73.93087       71.18491
C        104.11430       76.78952       69.79534
C        104.99747       77.94938       70.29096
O        103.24066       77.26901       68.80563
H        105.11204       75.34271       71.75013
H        102.71901       77.05564       71.36710
H        104.75900       75.98728       69.37159
H        103.78568       77.41833       67.98901
H        105.71217       77.60792       71.06892
H        105.58509       78.37052       69.44853
H        104.36877       78.76014       70.71970
N        100.91016       75.61763       70.68772
C         99.72787       74.75171       70.47343
C         99.66350       74.17304       69.06650
O        100.34105       73.20190       68.79105
C         99.56472       73.65999       71.58651
C         99.55519       74.25953       73.01897
C         98.33714       72.75787       71.35983
C         98.33379       75.12240       73.35519
H        100.79563       76.46122       70.07722
H         98.84749       75.42265       70.56771
H        100.42892       72.97870       71.54166
H        100.47320       74.86463       73.17083
H         99.58915       73.42598       73.75463
H         97.39770       73.34568       71.34482
H         98.42027       72.21500       70.39553
H         98.27882       71.99005       72.16179
H         98.25272       75.99579       72.67845
H         97.40044       74.52464       73.30182
H         98.42714       75.49950       74.39529
N         98.82504       74.69538       68.12725
C         98.58276       74.02547       66.84704
C         99.32904       74.64905       65.68140
O         99.33913       74.03707       64.61928
C         97.06014       73.90756       66.57745
C         96.37235       75.26864       66.38434
O         96.43522       73.23948       67.64306
H         98.32875       75.57033       68.34343
H         98.98214       72.98869       66.90177
H         96.89919       73.33568       65.63375
H         96.62512       72.27196       67.52936
H         96.42831       75.89444       67.29820
H         96.83010       75.82611       65.54033
H         95.29666       75.11449       66.15647
N         99.97928       75.83963       65.77928
C        100.73162       76.40727       64.66521
C        102.09981       75.75361       64.55728
O        102.86275       75.80879       65.51171
C        100.88139       77.94050       64.80714
C         99.51777       78.63521       64.68702
O        101.48773       78.26370       66.03262
H         99.90955       76.37767       66.65621
H        100.16873       76.25244       63.71597
H        101.52068       78.29782       63.96527
H        101.76022       79.21649       65.97568
H         98.82783       78.30785       65.49233
H         99.64619       79.73608       64.74879
H         99.05738       78.39936       63.70256
N        102.49283       75.16869       63.38819
C        103.83264       74.64890       63.12464
C        104.17390       73.44853       63.99724
O        105.15232       73.49878       64.73111
C        104.90483       75.76604       63.23809
C        104.63736       76.95668       62.30562
C        105.75128       78.00448       62.44390
C        105.50965       79.20894       61.52543
N        106.58105       80.19542       61.66767
H        101.82397       75.14301       62.60305
H        103.86296       74.28641       62.07240
H        105.89339       75.32981       62.97096
H        104.97071       76.13526       64.28318
H        103.66317       77.42437       62.56615
H        104.59418       76.59921       61.25354
H        106.72727       77.53927       62.18243
H        105.79579       78.35647       63.49824
H        104.53726       79.68435       61.78368
H        105.46506       78.86700       60.46753
H        106.39132       81.00309       61.03141
H        106.62179       80.54397       62.65312
H        107.50023       79.76924       61.40727
N        103.43613       72.30171       63.91368
C        103.80220       71.07335       64.62227
C        102.75270       70.66282       65.65020
O        103.11046       70.66111       66.82018
C        104.14668       69.92482       63.64344
C        105.34714       70.26790       62.75026
C        105.64905       69.13601       61.80872
O        105.60854       69.31409       60.60169
O        105.96779       67.91918       62.29073
H        102.62267       72.30129       63.28532
H        104.73622       71.24424       65.20410
H        103.29588       69.66888       62.98849
H        104.39871       69.01795       64.23701
H        106.24206       70.45849       63.38095
H        105.12698       71.18509       62.16156
N        101.47131       70.26768       65.38303
C        100.81109       70.18471       64.09851
H         99.88722       70.79804       64.12949
H        101.41072       70.54323       63.25574
H        100.52793       69.12783       63.90653
H        100.89533       69.97650       66.18367
Ca       102.27922       72.02140       69.94720
O        103.99104       69.48698       69.55278
H        104.48836       69.08523       70.30818
H        103.35195       68.78554       69.27228
O        103.77162       73.62659       67.80293
H        104.38145       74.38952       67.64414
H        102.89435       73.93190       67.46115
O        105.91421       71.35595       68.25405
H        106.57443       71.72729       68.89150
H        106.00207       71.92190       67.44674

Ca 1.0



