%chk=apoCaM-CA-Ng.loop1.water1.frame825.chk
%nprocshared=20
%mem=10GB
%nosave
#b3lyp/svp scf=(tight,noincore,xqc) Test 
#IOP(5/87=12) Density=Current Pop=(MK,readradii) iop(6/33=2) iop(6/42=6)

apoCaM-CA-Ng.loop1.water1.frame825 

   0  1 
C         35.52430       89.02393       87.21503
C         34.83454       88.31722       86.08260
O         33.85218       87.63066       86.32178
H         36.39736       89.61110       86.85661
H         34.81498       89.72061       87.70768
H         35.88544       88.28043       87.95525
N         35.30617       88.44543       84.81319
C         34.71501       87.79989       83.64633
C         35.73155       86.84309       83.03498
O         36.84660       87.25312       82.78196
C         34.18983       88.85848       82.64935
C         35.20027       89.82394       82.07923
O         36.50069       89.77114       82.42227
O         34.84489       90.61036       81.21618
H         36.14095       89.03094       84.67185
H         33.81943       87.20894       83.93951
H         33.39215       89.45031       83.14848
H         33.72385       88.31197       81.79920
N         35.42907       85.52852       82.84769
C         36.39037       84.49723       82.43944
C         36.93915       84.66420       81.00739
O         36.54419       83.91340       80.12658
C         35.72968       83.10901       82.66144
C         36.69903       81.91771       82.54980
C         35.96707       80.61112       82.90788
C         36.87830       79.37272       82.93148
N         37.43798       79.06253       81.61607
H         34.47540       85.22635       83.10154
H         37.24953       84.52303       83.14684
H         34.87373       82.97801       81.96305
H         35.32909       83.09643       83.70044
H         37.53792       82.06553       83.26476
H         37.11125       81.85742       81.52258
H         35.12912       80.44111       82.19709
H         35.53710       80.71714       83.92857
H         36.26798       78.50630       83.27210
H         37.69997       79.51929       83.66721
H         36.66998       78.93851       80.91719
H         38.08788       79.81837       81.30616
H         37.97985       78.17059       81.68194
N         37.97817       85.52010       80.75349
C         38.75977       85.53079       79.50786
C         40.01505       86.39226       79.65051
O         39.98719       87.33104       80.43257
C         37.97056       85.85670       78.20842
C         37.48557       87.24922       77.85004
O         37.51766       88.34750       78.63021
O         37.01340       87.38889       76.73301
H         38.33651       86.06863       81.54190
H         39.10959       84.48360       79.39552
H         37.10390       85.17303       78.11797
H         38.65024       85.59543       77.37540
N         41.18099       86.17753       78.97168
C         41.47809       85.13198       78.00473
C         41.55402       83.74198       78.59506
O         42.22736       83.55674       79.59885
H         41.94936       86.84411       79.15182
H         42.50119       85.33186       77.61653
H         40.80082       85.18438       77.13148
N         40.98446       82.69250       77.93312
C         41.15773       81.29328       78.31489
C         41.99971       80.59161       77.25804
O         41.88311       80.90369       76.08018
C         39.79137       80.61099       78.48484
C         39.94047       79.18508       78.94836
O         39.51114       78.26795       78.26714
O         40.54980       78.91417       80.11936
H         40.46647       82.88613       77.06201
H         41.69341       81.22039       79.28806
H         39.23804       80.64141       77.52048
H         39.19946       81.16128       79.24711
N         42.90928       79.64686       77.62857
C         43.84129       79.01248       76.70856
C         45.00313       79.91473       76.32162
O         45.92193       79.41912       75.68470
H         42.94558       79.35214       78.61608
H         43.31153       78.60666       75.81927
H         44.30257       78.15283       77.24257
N         45.06175       81.22500       76.70287
C         46.21988       82.08903       76.50483
C         45.90046       83.22360       75.54154
O         44.78960       83.28754       75.03150
C         46.71752       82.59518       77.89127
C         45.68249       83.43968       78.64943
O         47.06388       81.50000       78.69898
H         44.26341       81.64342       77.18857
H         47.05563       81.52090       76.03984
H         47.61333       83.24134       77.75796
H         47.92559       81.14769       78.35468
H         45.36543       84.31094       78.04853
H         44.78448       82.84870       78.91753
H         46.12447       83.81172       79.59703
N         46.85834       84.14656       75.23028
C         46.66652       85.22892       74.26388
C         47.66880       85.16358       73.11056
O         47.48482       85.90958       72.15881
C         46.72223       86.62523       74.96052
C         48.05880       86.83832       75.72685
C         45.50142       86.80225       75.87873
C         48.21831       88.23763       76.32354
H         47.76889       84.07206       75.70287
H         45.66771       85.12786       73.78427
H         46.63848       87.40304       74.16873
H         48.90720       86.68051       75.02696
H         48.15040       86.10629       76.55731
H         44.56444       86.64938       75.30177
H         45.52838       86.07946       76.71346
H         45.45585       87.82747       76.29681
H         47.44874       88.43966       77.09578
H         49.21003       88.31265       76.81853
H         48.15912       89.00766       75.52636
N         48.76148       84.34243       73.12602
C         49.73585       84.28002       72.04280
C         51.01481       84.94836       72.49614
O         51.52342       84.61654       73.55839
C         50.01420       82.81658       71.63541
C         48.74717       82.11497       71.14009
O         50.97442       82.80628       70.60813
H         48.96015       83.76247       73.95108
H         49.36522       84.81081       71.13755
H         50.40792       82.27216       72.52671
H         51.41279       81.91580       70.62645
H         48.33486       82.64210       70.25336
H         48.98918       81.06985       70.85170
H         47.97725       82.08607       71.93908
N         51.61105       85.87982       71.69925
C         52.84388       86.56777       72.05281
C         52.67722       88.06523       71.85544
O         52.89601       88.80754       72.80277
C         54.02631       85.98971       71.23936
C         55.36734       86.57507       71.70478
O         53.84905       86.21320       69.86497
H         51.19903       86.06422       70.77271
H         53.09375       86.37655       73.12129
H         54.04749       84.89185       71.43768
H         54.43189       85.56478       69.39015
H         55.52060       86.36628       72.78541
H         56.20105       86.10851       71.13962
H         55.40520       87.67195       71.55165
N         52.29683       88.57865       70.64572
C         52.20346       90.00780       70.37270
C         50.76982       90.41213       70.08995
O         49.91738       89.55773       69.88692
C         53.10792       90.35097       69.16604
C         54.58475       90.03440       69.46506
C         55.53204       90.23971       68.27163
C         55.31008       89.20969       67.14812
N         56.31441       89.35912       66.09467
H         52.07520       87.93748       69.86996
H         52.52967       90.59008       71.26197
H         53.01993       91.42834       68.90561
H         52.75565       89.75528       68.29706
H         54.69454       88.98364       69.79868
H         54.91072       90.69784       70.29512
H         56.56856       90.10292       68.65042
H         55.43967       91.27523       67.87866
H         54.29945       89.32786       66.70383
H         55.38825       88.18284       67.57177
H         57.27340       89.21898       66.48893
H         56.14856       88.63614       65.35734
H         56.24557       90.30853       65.66222
N         50.43381       91.73319       70.11911
C         49.08632       92.23990       69.87987
C         48.04774       91.56275       70.77627
O         47.11701       91.00103       70.21598
C         49.05839       93.78452       70.01285
C         47.69921       94.39465       69.63283
C         47.70047       95.89954       69.71889
O         46.68686       96.51764       69.43671
O         48.80112       96.57842       70.10148
H         51.17946       92.41283       70.33828
H         48.82574       92.00839       68.82176
H         49.82883       94.20315       69.32796
H         49.31364       94.10009       71.04427
H         46.91132       94.00855       70.31439
H         47.44742       94.10268       68.59064
N         48.08543       91.53167       72.14229
C         49.12449       92.07856       72.98955
H         49.95519       92.53967       72.43359
H         48.68235       92.83892       73.66635
H         49.55300       91.26029       73.60584
H         47.31223       91.05376       72.63161
Ca        37.76483       88.98543       80.75464
O         38.99669       88.71537       84.53456
H         39.08492       88.97173       85.48664
H         38.68889       87.77501       84.56206

Ca 1.0



