%chk=apoCaM-CA-Ng.loop3.water3.frame866.chk
%nprocshared=20
%mem=10GB
%nosave
#b3lyp/svp scf=(tight,noincore,xqc) Test 
#IOP(5/87=12) Density=Current Pop=(MK,readradii) iop(6/33=2) iop(6/42=6)

apoCaM-CA-Ng.loop3.water3.frame866 

   0  1 
C         62.01283       65.66669       91.97614
C         61.80700       66.97327       91.27735
O         62.15599       67.07513       90.11124
H         62.49015       64.93143       91.29190
H         62.66018       65.80893       92.86442
H         61.02724       65.26405       92.29112
N         61.22907       68.02170       91.93122
C         60.91095       69.28302       91.27763
C         61.71192       70.41726       91.90774
O         61.58000       70.66709       93.09769
C         59.38713       69.50935       91.35907
C         58.89773       70.62364       90.48000
O         57.71721       70.93144       90.49391
O         59.74296       71.28599       89.67232
H         60.97153       67.90678       92.92377
H         61.17654       69.21832       90.20503
H         59.10474       69.70541       92.41594
H         58.85707       68.59280       91.03269
N         62.59669       71.12317       91.14721
C         63.47758       72.17463       91.64698
C         62.69321       73.35691       92.19019
O         62.94227       73.74121       93.32438
C         64.45870       72.59177       90.52613
C         65.54790       73.57027       90.99342
C         66.60611       73.76009       89.89478
C         67.72751       74.70517       90.34664
N         68.76861       74.80740       89.32297
H         62.68320       70.86748       90.15599
H         64.10511       71.74793       92.46248
H         63.91263       73.02515       89.66379
H         64.96775       71.66311       90.18207
H         66.05203       73.15135       91.89181
H         65.08925       74.54686       91.26139
H         66.13020       74.16417       88.97449
H         67.05364       72.76936       89.65702
H         68.18392       74.32025       91.28577
H         67.30387       75.71380       90.54847
H         69.51257       75.46362       89.65348
H         69.20065       73.86892       89.15673
H         68.36580       75.17193       88.42943
N         61.70712       73.95742       91.45935
C         60.91945       75.08454       91.96190
C         59.52903       74.65924       92.42377
O         58.83117       75.50999       92.94838
C         60.90782       76.25996       90.94697
C         60.37356       75.88665       89.59224
O         61.10381       75.93133       88.61576
O         59.12323       75.42162       89.45474
H         61.46596       73.55950       90.54027
H         61.39019       75.48898       92.88473
H         61.95526       76.61213       90.82329
H         60.31184       77.10563       91.35218
N         59.09959       73.36214       92.38256
C         57.86154       72.90630       93.00885
C         56.56144       73.28672       92.31280
O         55.52291       72.94610       92.86112
H         59.72897       72.63871       92.01485
H         57.84189       73.27483       94.05807
H         57.87679       71.79671       93.06213
N         56.51234       73.95892       91.12488
C         55.26151       74.34301       90.46506
C         55.14476       73.74890       89.06770
O         56.02566       73.94675       88.24271
C         55.14111       75.87667       90.32330
C         54.85829       76.58795       91.62524
N         55.75995       76.60682       92.62670
O         53.79426       77.17189       91.76791
H         57.39201       74.22390       90.67074
H         54.37628       74.01149       91.05144
H         54.26933       76.08264       89.66059
H         56.04406       76.29866       89.83043
H         56.66034       76.14069       92.51280
H         55.56106       77.10059       93.50898
N         53.98478       73.12725       88.70704
C         53.64375       72.75113       87.34515
C         54.47542       71.62276       86.80734
O         54.50410       70.56573       87.42246
H         53.24364       73.01025       89.41449
H         53.70074       73.64638       86.68802
H         52.58868       72.40160       87.33409
N         55.12103       71.74962       85.61081
C         55.85277       70.64465       84.99904
C         57.03422       70.21953       85.84891
O         57.30950       70.83816       86.86722
C         56.27860       70.99732       83.55066
C         55.07458       71.13924       82.64201
C         54.22554       70.03695       82.42464
C         54.79087       72.35368       81.99487
C         53.11110       70.15004       81.59082
C         53.67353       72.46372       81.15692
C         52.82961       71.36547       80.95447
O         51.75560       71.48775       80.14794
H         55.04012       72.64069       85.09637
H         55.17628       69.76426       84.95604
H         56.90611       70.19107       83.11654
H         56.89293       71.92473       83.56591
H         54.42467       69.08450       82.89896
H         55.43040       73.21520       82.13779
H         52.46862       69.29111       81.44010
H         53.46206       73.40419       80.66398
H         51.14739       70.75179       79.98614
N         57.72624       69.09603       85.50342
C         58.76638       68.45598       86.29982
C         59.97804       69.35790       86.47211
O         59.87654       70.39964       87.10048
C         58.20263       67.95139       87.66079
C         59.26258       67.20056       88.50570
C         56.95410       67.07455       87.45100
C         59.86453       65.94966       87.86022
H         57.45357       68.60524       84.63806
H         59.07795       67.55613       85.72791
H         57.88037       68.82718       88.26443
H         58.80032       66.89823       89.46929
H         60.09060       67.89781       88.73040
H         57.18448       66.18618       86.82820
H         56.55225       66.73946       88.43044
H         56.15116       67.64978       86.94380
H         60.59063       65.49241       88.56399
H         59.08328       65.19516       87.64124
H         60.41346       66.20170       86.93112
N         61.17151       69.00786       85.91747
C         62.36348       69.84759       86.04582
C         63.46469       69.58612       85.02401
O         64.38459       70.39377       84.97930
C         62.93428       69.74593       87.47037
O         63.46716       68.47135       87.71582
H         61.17620       68.14409       85.37344
H         62.04253       70.89107       85.84295
H         62.15102       69.98059       88.21528
H         63.74831       70.48956       87.60823
H         62.70828       67.83323       87.70670
N         63.46402       68.52749       84.16176
C         64.46970       68.37173       83.12230
C         64.31667       69.48261       82.08194
O         63.26939       70.11622       82.06419
C         64.26340       67.00700       82.44694
H         62.74718       67.79985       84.21788
H         65.46446       68.38709       83.60682
H         64.36395       66.19629       83.20013
H         63.24741       66.94957       81.99904
H         64.98955       66.81935       81.64743
N         65.25703       69.77433       81.13572
C         66.61470       69.24241       81.09707
C         67.24698       69.50936       79.73557
O         67.23800       70.65467       79.30485
C         67.48506       69.91446       82.16779
H         64.99562       70.47815       80.42654
H         66.60672       68.16690       81.30787
H         67.54321       71.00989       81.99586
H         67.09618       69.74995       83.18895
H         68.51274       69.49136       82.12755
N         67.87738       68.54451       79.00335
C         68.06773       67.16885       79.44701
C         66.76980       66.38111       79.40553
O         66.56369       65.54239       80.27165
C         69.17744       66.48449       78.62694
C         69.61441       65.15229       79.25928
C         70.81626       64.59085       78.55924
O         70.75736       64.28405       77.37974
O         71.96995       64.42399       79.23512
H         68.32496       68.83798       78.11993
H         68.46538       67.20089       80.48650
H         70.06318       67.15905       78.64093
H         68.86002       66.34441       77.57020
H         68.78747       64.41237       79.22813
H         69.88694       65.33030       80.32376
N         65.83908       66.60723       78.43616
C         64.57602       65.90051       78.40130
H         63.96666       66.25348       77.54189
H         64.75014       64.80950       78.29216
H         64.00648       66.09355       79.33588
H         66.01884       67.31434       77.70786
Ca        59.13041       73.27156       88.84866
O         60.27443       73.02399       85.25868
H         59.94347       72.18894       84.84230
H         61.21565       73.09638       84.95973
O         58.15756       74.90437       86.22042
H         58.63209       75.76865       86.31138
H         57.28519       75.13924       85.81543
O         62.10612       72.82669       87.67772
H         62.95673       72.89379       87.17597
H         62.09538       73.63445       88.24519

Ca 1.0



