%chk=apoCaM-CA-Ng.loop3.water4.frame222.chk
%nprocshared=20
%mem=10GB
%nosave
#b3lyp/svp scf=(tight,noincore,xqc) Test 
#IOP(5/87=12) Density=Current Pop=(MK,readradii) iop(6/33=2) iop(6/42=6)

apoCaM-CA-Ng.loop3.water4.frame222 

   0  1 
C         42.51378       47.14727       83.19284
C         43.73075       47.75657       83.82614
O         43.93532       48.94895       83.66259
H         41.60261       47.65862       83.56878
H         42.56620       47.26800       82.09065
H         42.43528       46.06429       83.42145
N         44.58793       46.99438       84.56859
C         45.80067       47.50349       85.21080
C         46.85641       47.94242       84.19662
O         47.79178       48.63445       84.57394
C         45.47219       48.60345       86.25244
C         44.53093       48.14107       87.33918
O         44.20093       48.99066       88.32866
O         44.07431       47.00803       87.35005
H         44.37330       45.99373       84.69446
H         46.27482       46.67397       85.78063
H         45.03817       49.49618       85.76064
H         46.41423       48.92026       86.74890
N         46.81687       47.49429       82.90849
C         47.81568       47.80396       81.88930
C         47.14961       48.53581       80.72206
O         47.74058       48.62440       79.65440
C         48.43473       46.47645       81.38470
C         48.97423       45.58251       82.51673
C         49.54111       44.27087       81.95328
C         49.89701       43.28618       83.07638
N         50.41406       42.03182       82.52844
H         46.04951       46.87105       82.61597
H         48.64003       48.43368       82.29104
H         49.25712       46.70466       80.66997
H         47.65137       45.90057       80.84388
H         48.13357       45.33171       83.19895
H         49.75850       46.11462       83.09878
H         50.44034       44.48998       81.33634
H         48.77491       43.78938       81.30694
H         48.98119       43.06857       83.67132
H         50.65624       43.73604       83.75312
H         49.70938       41.59895       81.88745
H         51.30338       42.20735       82.00718
H         50.60521       41.36741       83.31297
N         45.89584       49.06247       80.85795
C         45.09332       49.59906       79.76810
C         45.79297       50.73531       79.05599
O         46.27221       51.65305       79.70794
C         43.72076       50.05736       80.30134
C         42.75511       50.28561       79.17483
O         42.19160       51.48583       78.99374
O         42.45773       49.36805       78.42733
H         45.45709       49.04507       81.78376
H         44.90958       48.76255       79.05815
H         43.83939       50.96793       80.93174
H         43.28002       49.26051       80.93508
N         45.89129       50.72214       77.69792
C         46.65715       51.69624       76.94622
C         46.23096       53.14442       77.08854
O         47.00024       53.96809       76.61309
H         45.46257       49.94443       77.17476
H         46.64934       51.43054       75.86588
H         47.70809       51.62291       77.29950
N         45.06978       53.56123       77.69278
C         44.78439       54.99077       77.88439
C         44.50148       55.36871       79.34034
O         44.40661       56.56056       79.59919
C         43.65797       55.46983       76.94200
C         42.25077       55.34429       77.52434
N         41.24708       55.61047       76.49827
O         42.04530       54.10100       78.11865
H         44.37870       52.86002       77.99339
H         45.67980       55.56924       77.57574
H         43.75030       54.94922       75.96189
H         43.78509       56.55725       76.74830
H         41.39489       56.57213       76.11491
H         40.30945       55.60327       76.94645
N         44.30421       54.43653       80.32885
C         44.00855       54.79721       81.71412
C         42.61993       54.37448       82.18845
O         42.26285       54.73839       83.29907
H         44.35447       53.43362       80.10881
H         44.06343       55.89729       81.84498
H         44.78019       54.34752       82.37540
N         41.78774       53.61101       81.42448
C         40.41375       53.24961       81.77687
C         39.48254       53.59167       80.62642
O         39.79598       53.29096       79.48409
C         40.27099       51.75153       82.11409
C         40.65491       51.47744       83.55303
C         39.63467       51.22918       84.49243
C         41.98980       51.49731       83.98851
C         39.93802       51.01591       85.83605
C         42.29247       51.27337       85.33959
C         41.26453       51.03689       86.26676
O         41.53409       50.83491       87.57184
H         42.13889       53.26383       80.52994
H         40.05634       53.80642       82.67296
H         40.78833       51.08652       81.39054
H         39.18636       51.51475       82.02987
H         38.59409       51.22154       84.19140
H         42.79336       51.68361       83.28845
H         39.13686       50.84222       86.54421
H         43.32341       51.28993       85.66735
H         42.43441       50.85729       87.92223
N         38.26728       54.15825       80.87334
C         37.35675       54.57071       79.81033
C         37.96317       55.79079       79.14527
O         38.13656       55.76779       77.93692
C         35.90877       54.77490       80.35720
C         35.32255       53.44549       80.92615
C         34.94166       55.32937       79.29212
C         35.06547       52.33764       79.88603
H         37.98678       54.31684       81.85340
H         37.27520       53.76923       79.05018
H         35.95035       55.51352       81.18813
H         34.34890       53.66911       81.41365
H         35.99619       53.04011       81.70931
H         34.90280       54.68341       78.39201
H         33.92023       55.43175       79.71733
H         35.24008       56.32576       78.95346
H         34.64040       51.44631       80.39151
H         34.32453       52.65966       79.12501
H         35.99509       52.01938       79.37400
N         38.39553       56.85915       79.88270
C         39.14517       57.96678       79.28447
C         38.31896       58.78689       78.30465
O         38.89596       59.59818       77.59520
C         39.74304       58.88320       80.36323
O         40.62760       58.16343       81.18253
H         38.26336       56.83328       80.90515
H         39.99707       57.52369       78.71995
H         38.93796       59.36482       80.96536
H         40.32163       59.70235       79.88434
H         40.11119       57.84730       81.96846
N         36.97383       58.60234       78.18407
C         36.13215       59.23451       77.18227
C         36.65249       58.90080       75.79550
O         36.91948       59.80615       75.01496
C         36.00261       60.74087       77.44648
H         36.51026       57.94987       78.81568
H         35.10806       58.80595       77.27311
H         35.29749       61.19308       76.71668
H         35.59693       60.90659       78.46764
H         36.98069       61.25682       77.36410
N         36.82744       57.59700       75.42713
C         37.34819       57.20566       74.11630
C         37.27872       55.70148       73.87535
O         36.97503       54.94278       74.78658
C         38.80399       57.67366       73.95013
H         36.55388       56.87111       76.10730
H         36.70194       57.68057       73.34557
H         39.44271       57.19781       74.72366
H         39.19582       57.40361       72.94793
H         38.89751       58.77248       74.05277
N         37.48496       55.21562       72.61329
C         37.34154       53.81421       72.21346
C         35.98523       53.29508       72.67218
O         35.91475       52.25676       73.31794
C         38.47979       52.94344       72.77999
C         39.88601       53.44653       72.41756
C         40.88298       52.75175       73.28578
O         41.88911       52.22157       72.84325
O         40.63525       52.79176       74.60040
H         37.68257       55.89329       71.86041
H         37.39546       53.76813       71.10352
H         38.37780       51.88762       72.44344
H         38.35918       52.96062       73.88382
H         39.95862       54.52095       72.69018
H         40.11432       53.33838       71.33596
N         34.86588       54.03345       72.44188
C         33.56259       53.67392       72.96157
H         32.83867       53.59791       72.12696
H         33.57462       52.70951       73.51269
H         33.22724       54.46343       73.66775
H         34.94576       54.92259       71.92643
Ca        41.89032       52.69967       76.39148
O         40.43248       49.59639       75.64809
H         40.78227       49.49556       74.72722
H         40.26750       48.66906       75.95395
O         43.68934       50.74707       75.53198
H         43.56642       49.99526       74.90186
H         43.81757       51.54200       74.95571
O         38.99396       50.34816       78.57241
H         38.36309       50.45531       79.32811
H         39.09821       49.36860       78.47186
O         38.51416       52.94338       76.73580
H         37.54003       53.11686       76.75454
H         38.89355       53.73036       76.27157

Ca 1.0



