%chk=apoCaM-CA-Ng.loop2.water4.frame500.chk
%nprocshared=20
%mem=10GB
%nosave
#b3lyp/svp scf=(tight,noincore,xqc) Test 
#IOP(5/87=12) Density=Current Pop=(MK,readradii) iop(6/33=2) iop(6/42=6)

apoCaM-CA-Ng.loop2.water4.frame500 

   -2  1 
C         78.89754       48.58390       64.18823
C         79.32373       47.75826       63.00410
O         79.21599       46.54205       63.05867
H         77.81728       48.42525       64.38911
H         79.48100       48.28788       65.08386
H         79.06094       49.66868       64.00941
N         79.80642       48.36376       61.88399
C         80.21458       47.63993       60.68213
C         81.38905       46.71001       60.94543
O         82.40269       47.15970       61.46183
C         80.55959       48.61275       59.52883
C         81.76376       49.48977       59.77442
O         82.73497       49.40641       59.03979
O         81.77466       50.38456       60.78034
H         79.84492       49.39294       61.87935
H         79.34488       47.04619       60.32223
H         79.68058       49.26004       59.32146
H         80.74610       48.00113       58.61755
N         81.34511       45.40448       60.54720
C         82.48146       44.49954       60.71222
C         82.72309       44.17809       62.17678
O         81.94872       44.60324       63.02064
C         82.26228       43.21595       59.90169
H         80.50401       45.06718       60.05382
H         83.38711       44.99643       60.29712
H         82.12340       43.47595       58.82976
H         83.14569       42.54688       59.96930
H         81.36530       42.66935       60.25987
N         83.80300       43.43434       62.54906
C         84.15290       43.16138       63.93720
C         84.08111       41.68072       64.27677
O         84.63515       41.29261       65.29759
C         85.54875       43.75496       64.23359
C         85.50419       45.25898       64.23755
O         86.24491       45.92117       63.52914
O         84.65101       45.85629       65.09095
H         84.43669       43.07262       61.81995
H         83.44147       43.63901       64.64273
H         86.30720       43.36336       63.52085
H         85.86075       43.46532       65.25973
N         83.31764       40.80745       63.55506
C         83.16637       39.41375       63.94997
C         82.46748       39.22254       65.29136
O         82.46685       38.09499       65.76589
H         82.82604       41.12597       62.70771
H         84.18169       38.96276       64.00393
H         82.58826       38.85772       63.18154
N         81.86126       40.24983       65.96449
C         81.26544       40.10355       67.29501
C         79.77279       40.41521       67.29258
O         79.24944       40.87525       66.28580
C         82.05924       40.93113       68.33473
C         82.18356       42.40377       68.02455
N         81.72942       43.33549       68.88609
O         82.74765       42.76685       67.00598
H         81.82106       41.17684       65.52214
H         81.34360       39.04399       67.62186
H         83.09358       40.52742       68.38312
H         81.60334       40.79075       69.33788
H         81.26712       43.07581       69.76842
H         81.86408       44.32897       68.66298
N         79.00893       40.07329       68.37461
C         77.55100       40.14146       68.39813
C         76.99972       40.77513       69.65588
O         77.76175       41.25927       70.48341
H         79.47334       39.62699       69.18114
H         77.17554       39.09678       68.38558
H         77.14273       40.66516       67.50713
N         75.64849       40.76150       69.87975
C         75.04056       41.30507       71.09665
C         75.24991       42.80659       71.21859
O         75.09269       43.32619       72.31385
C         73.53377       40.95152       71.23461
C         72.64355       41.55917       70.13795
O         73.35489       39.55824       71.30808
H         75.05126       40.30766       69.17327
H         75.56232       40.82462       71.95574
H         73.17424       41.36931       72.20122
H         73.50051       39.17648       70.40465
H         72.92912       41.19330       69.13055
H         71.58296       41.28793       70.32274
H         72.71690       42.66246       70.15318
N         75.64024       43.55547       70.14665
C         76.04947       44.95095       70.24454
C         77.53281       44.99530       69.92038
O         78.05022       44.02996       69.37161
C         75.20277       45.83053       69.26112
C         73.67682       45.70847       69.50424
C         75.61449       47.31505       69.24990
C         73.20029       46.16348       70.88558
H         75.72338       43.10960       69.22144
H         75.93195       45.31464       71.28692
H         75.37739       45.44973       68.22906
H         73.36933       44.65653       69.35271
H         73.14214       46.30953       68.73553
H         74.97138       47.88747       68.54823
H         75.53492       47.76485       70.26087
H         76.64893       47.43841       68.87638
H         73.65386       45.54607       71.68558
H         73.44045       47.23149       71.06124
H         72.09786       46.04595       70.94639
N         78.28853       46.08546       70.22893
C         79.67703       46.19497       69.82101
C         80.57950       46.43206       71.02057
O         81.32335       47.39544       71.01114
C         79.74935       47.30002       68.74029
C         81.09686       47.49778       68.10047
O         81.22626       48.34415       67.23143
O         82.16259       46.76290       68.46447
H         77.85805       46.88333       70.71880
H         80.00845       45.25776       69.34581
H         79.41477       48.26221       69.18125
H         79.04088       47.02845       67.92652
N         80.59518       45.57970       72.08827
C         81.53477       45.74666       73.20085
C         81.36888       47.12731       73.84378
O         80.23937       47.47493       74.16107
C         81.34407       44.65140       74.27795
C         82.54418       44.63988       75.19768
C         83.73943       44.03599       74.76286
C         82.51095       45.26595       76.45533
C         84.87984       44.05871       75.56944
C         83.66175       45.29915       77.25370
C         84.84350       44.69579       76.81136
H         79.94386       44.77910       72.09329
H         82.55379       45.62197       72.77959
H         81.26074       43.64013       73.82214
H         80.39790       44.83672       74.83311
H         83.78693       43.55017       73.79578
H         81.60925       45.75299       76.80311
H         85.79425       43.59143       75.22588
H         83.64238       45.80094       78.21224
H         85.73317       44.72527       77.42762
N         82.42473       47.97257       74.08118
C         82.28135       49.29072       74.68464
C         82.11584       50.38519       73.62638
O         81.92678       51.53678       73.99192
C         83.62707       49.46054       75.39333
C         84.58165       48.86999       74.36102
C         83.82462       47.61862       73.91907
H         81.44007       49.33238       75.41175
H         83.86107       50.49665       75.71938
H         83.64110       48.79520       76.28704
H         84.63339       49.57670       73.50328
H         85.61811       48.67903       74.70875
H         84.09735       47.33180       72.88104
H         84.05525       46.79353       74.61777
N         82.25345       50.10246       72.30068
C         82.19226       51.08621       71.22845
C         80.80203       51.67996       71.16126
O         80.67268       52.89031       71.27836
C         82.58000       50.42179       69.88201
C         84.04643       49.93506       69.88678
C         84.36005       49.09653       68.68050
O         84.24081       49.57885       67.42770
O         84.71663       47.93910       68.83625
H         82.45992       49.13766       72.03653
H         82.93122       51.89617       71.42154
H         82.45317       51.14066       69.04362
H         81.90005       49.56492       69.70435
H         84.24196       49.30382       70.77954
H         84.73267       50.80584       69.93528
N         79.71187       50.87792       70.99785
C         78.35222       51.37694       70.94908
H         77.76811       50.92949       71.78050
H         78.30179       52.48221       71.04356
H         77.88653       51.08531       69.98487
H         79.84377       49.85916       70.92097
Ca        84.42578       47.97726       65.83614
O         82.26106       49.07568       64.03643
H         82.61609       48.17861       63.81864
H         82.90354       49.69919       63.61507
O         84.72461       45.10417       67.76164
H         84.34736       44.96330       68.66504
H         85.12072       44.23102       67.51653
O         87.40550       48.05399       66.17349
H         86.99362       48.91695       66.43133
H         87.38263       48.05545       65.18350
O         81.51065       45.73402       65.64241
H         82.01295       46.22095       64.94392
H         82.20497       45.22991       66.13442

Ca 1.0



