%chk=apoCaM-CA-Ng.loop4.water6.frame514.chk
%nprocshared=20
%mem=10GB
%nosave
#b3lyp/svp scf=(tight,noincore,xqc) Test 
#IOP(5/87=12) Density=Current Pop=(MK,readradii) iop(6/33=2) iop(6/42=6)

apoCaM-CA-Ng.loop4.water6.frame514 

   -3  1 
C         -5.77344       47.75894       58.16621
C         -6.51306       46.47411       58.37716
O         -7.20704       46.33876       59.37459
H         -4.68403       47.55319       58.10567
H         -6.11089       48.22827       57.21878
H         -5.96136       48.46425       59.00324
N         -6.40510       45.47330       57.45423
C         -7.06618       44.17105       57.54627
C         -8.58990       44.26866       57.42170
O         -9.24688       43.23887       57.49443
C         -6.65570       43.41226       58.83518
C         -5.16459       43.41150       59.05667
O         -4.53949       44.58127       59.29979
O         -4.53386       42.36696       59.06474
H         -5.79403       45.63099       56.63785
H         -6.71431       43.55776       56.68609
H         -7.02900       42.36630       58.76410
H         -7.12319       43.87122       59.73079
N         -9.22234       45.46578       57.22604
C        -10.67437       45.62074       57.14164
C        -11.23830       44.87846       55.93155
O        -10.47110       44.54789       55.03753
C        -11.06498       47.14643       57.15290
C        -10.48527       47.93296       55.94434
C        -10.66852       47.76130       58.51091
C        -10.96584       49.38559       55.88733
H         -8.65406       46.31126       57.15493
H        -11.10592       45.14660       58.04562
H        -12.15621       47.26293       57.07827
H        -10.82021       47.44035       55.00650
H         -9.37706       47.94244       55.95009
H         -9.57022       47.75170       58.66314
H        -11.02941       48.80343       58.60846
H        -11.14378       47.18600       59.33339
H        -10.60405       49.96570       56.76020
H        -10.56395       49.87291       54.97459
H        -12.07534       49.42501       55.85199
N        -12.55848       44.54232       55.81069
C        -13.57360       44.74763       56.84064
C        -13.52984       43.69338       57.92540
O        -13.81645       44.02951       59.06534
C        -14.97466       44.97063       56.23958
C        -15.47728       43.82323       55.40941
O        -15.67831       42.61390       55.96397
O        -15.72846       43.99227       54.22650
H        -12.83907       44.03022       54.95939
H        -13.39268       45.68958       57.36340
H        -14.92731       45.88218       55.60157
H        -15.70166       45.17066       57.05676
N        -13.16229       42.40829       57.66824
C        -13.11121       41.39456       58.70637
C        -14.48242       41.15288       59.29373
O        -15.38957       40.81202       58.54726
H        -12.90136       42.13269       56.70954
H        -12.38467       41.69998       59.49115
H        -12.74922       40.44024       58.26544
N        -14.69753       41.26600       60.63711
C        -15.98560       40.94118       61.24732
C        -17.07115       41.98212       60.98087
O        -18.23433       41.66051       61.17954
C        -15.82651       40.59922       62.74582
C        -15.28904       41.69973       63.62508
O        -15.02440       42.80480       63.17972
O        -15.07566       41.44584       64.93025
H        -13.89296       41.48847       61.24227
H        -16.33127       39.99399       60.77479
H        -15.12072       39.74234       62.81846
H        -16.80548       40.26593       63.15179
N        -16.78193       43.23882       60.53634
C        -17.79498       44.19736       60.11719
C        -17.93586       45.38471       61.04268
O        -18.54935       46.35504       60.62368
H        -15.80034       43.53451       60.45872
H        -18.79949       43.73599       60.00798
H        -17.49730       44.55863       59.10771
N        -17.44282       45.37880       62.31866
C        -17.55308       46.51014       63.24169
C        -16.72255       47.70240       62.77929
O        -16.88222       48.78048       63.33811
C        -19.02864       46.89132       63.54190
C        -19.81304       45.72123       64.15879
C        -21.20395       46.14709       64.56227
N        -22.29708       45.55059       64.03175
O        -21.34490       47.03490       65.39078
H        -16.96961       44.53547       62.66975
H        -17.11438       46.21358       64.22014
H        -19.55343       47.25525       62.63460
H        -19.02598       47.72558       64.27831
H        -19.28778       45.35953       65.06921
H        -19.86199       44.88446       63.42935
H        -22.20554       44.79591       63.33674
H        -23.24272       45.84355       64.32055
N        -15.74371       47.56028       61.83654
C        -14.86138       48.64212       61.40981
C        -13.40840       48.39611       61.80641
O        -12.61563       49.30992       61.62691
C        -14.97441       48.88377       59.87571
C        -14.74865       47.60029       59.05404
C        -16.32721       49.50609       59.51399
H        -15.57972       46.63025       61.42895
H        -15.13593       49.58718       61.92962
H        -14.19656       49.62281       59.58059
H        -13.77511       47.13522       59.31297
H        -15.55767       46.85868       59.22808
H        -14.74923       47.83460       57.96896
H        -16.37059       49.71368       58.42302
H        -17.16591       48.83295       59.78799
H        -16.45029       50.47281       60.04822
N        -12.96530       47.21838       62.34330
C        -11.56919       47.03795       62.73900
C        -11.20790       47.88804       63.94951
O        -12.07033       48.49488       64.57045
C        -11.27165       45.54922       63.04417
C        -11.25285       44.71526       61.78978
N        -10.30499       44.92983       60.84561
O        -12.06910       43.81926       61.63905
H        -13.61231       46.42496       62.44729
H        -10.91610       47.36610       61.90116
H        -12.02073       45.16567       63.77236
H        -10.26858       45.42481       63.50353
H         -9.59269       45.66552       60.96763
H        -10.26365       44.34421       60.00078
N         -9.90020       47.96153       64.32174
C         -9.38271       48.68712       65.47498
C         -8.39593       49.73782       65.01485
O         -7.53908       49.43616       64.19517
C         -8.67474       47.68784       66.40494
C         -9.66825       46.74353       67.03294
C         -9.66470       45.37628       66.71569
C        -10.61145       47.23362       67.95304
C        -10.59628       44.51528       67.30542
C        -11.53494       46.37124       68.54658
C        -11.53347       45.01100       68.22497
O        -12.43404       44.19276       68.80515
H         -9.20929       47.45135       63.74873
H        -10.19285       49.19070       66.04680
H         -8.14431       48.22214       67.22360
H         -7.90963       47.13395       65.81564
H         -8.94962       44.97834       66.00667
H        -10.62606       48.28382       68.21802
H        -10.58841       43.46403       67.04787
H        -12.25161       46.76237       69.25797
H        -12.46838       43.24537       68.61170
N         -8.44941       51.00144       65.52313
C         -7.54879       52.06133       65.09449
C         -6.29635       52.08903       65.96913
O         -6.44104       52.33736       67.15846
C         -8.27759       53.42027       65.18374
C         -7.41613       54.57888       64.64896
C         -8.10140       55.91312       64.76801
O         -9.33164       56.02268       65.30848
O         -7.52796       56.91766       64.37929
H         -9.14934       51.21527       66.25123
H         -7.33953       51.93417       64.01727
H         -8.55627       53.62125       66.24260
H         -9.21355       53.36601       64.58404
H         -7.17787       54.39083       63.57950
H         -6.46464       54.63709       65.21912
N         -5.02480       51.92450       65.49229
C         -4.66683       51.51687       64.13917
C         -4.18935       52.70435       63.33816
O         -3.25957       53.38213       63.75528
C         -3.57837       50.42745       64.16712
C         -4.00835       49.20614       64.98876
C         -3.01621       48.09100       64.84978
O         -1.72905       48.27228       65.20208
O         -3.37699       47.00915       64.41685
H         -4.24555       52.08548       66.15129
H         -5.52234       51.05329       63.61963
H         -2.63089       50.83272       64.58875
H         -3.38678       50.11354       63.11610
H         -4.99977       48.84952       64.63786
H         -4.09192       49.48595       66.06096
N         -4.77863       52.99972       62.14697
C         -4.34979       54.10864       61.32538
H         -3.27691       53.99275       61.06129
H         -4.94353       54.13221       60.38654
H         -4.50128       55.06407       61.86961
H         -5.54660       52.40669       61.79699
Ca        -2.35980       44.87224       59.78933
O         -2.05820       44.57766       62.88612
H         -1.80896       45.52529       63.02210
H         -1.18993       44.10785       62.81915
O          0.58486       44.61562       59.61996
H          1.07968       45.10834       58.91820
H          1.21695       44.55732       60.37954
O         -1.91815       43.94722       57.09548
H         -2.12104       43.04163       57.44130
H         -1.84421       43.83187       56.11575
O         -4.25004       47.13040       60.95992
H         -3.70907       46.82316       61.72898
H         -5.04697       47.55309       61.36755
O         -1.63171       42.22082       60.56886
H         -1.33492       41.97281       61.47959
H         -2.19053       41.46063       60.27081
O         -0.74404       47.39104       60.76683
H          0.18948       47.55159       60.47821
H         -0.81854       47.85273       61.63957

Ca 1.0



