%chk=apoCaM-CA-Ng.loop4.water3.frame975.chk
%nprocshared=20
%mem=10GB
%nosave
#b3lyp/svp scf=(tight,noincore,xqc) Test 
#IOP(5/87=12) Density=Current Pop=(MK,readradii) iop(6/33=2) iop(6/42=6)

apoCaM-CA-Ng.loop4.water3.frame975 

   -3  1 
C         70.33300       35.30420       68.27390
C         69.77939       36.63846       68.67869
O         68.79955       37.06232       68.08462
H         71.23944       35.04384       68.85873
H         69.56739       34.51472       68.41488
H         70.61656       35.34464       67.19908
N         70.38158       37.37668       69.66007
C         70.01309       38.75102       70.00238
C         68.62379       38.91523       70.59969
O         68.24808       40.05956       70.80854
C         70.17783       39.65369       68.76151
C         71.59119       39.61769       68.27001
O         72.48494       40.11909       68.93308
O         71.88174       39.04353       67.09197
H         71.20442       36.98005       70.13875
H         70.72065       39.12811       70.77514
H         69.92296       40.71223       68.98877
H         69.49198       39.33243       67.95262
N         67.82137       37.86631       70.95324
C         66.49415       38.07098       71.53723
C         66.62806       38.06459       73.05692
O         66.98845       37.02034       73.58266
C         65.49812       36.96441       71.05372
C         65.47748       36.87288       69.50575
C         64.08403       37.21879       71.61089
C         64.51773       35.81974       68.94965
H         68.17976       36.90332       70.87433
H         66.09435       39.03999       71.18605
H         65.84758       35.98309       71.44688
H         66.49294       36.60332       69.15187
H         65.20313       37.85276       69.07028
H         63.40827       36.37058       71.38407
H         64.10006       37.31571       72.71631
H         63.65060       38.13547       71.16169
H         64.74465       34.81978       69.37496
H         63.46359       36.08848       69.16674
H         64.62402       35.77375       67.84546
N         66.40743       39.15148       73.86425
C         66.06092       40.50797       73.42277
C         66.53735       41.55374       74.43693
O         66.86094       41.20440       75.56399
C         64.54700       40.58938       73.13788
C         64.05946       41.93194       72.69001
O         63.05288       42.52312       73.35361
O         64.53428       42.47326       71.70700
H         66.57757       38.99666       74.86955
H         66.64459       40.73516       72.51183
H         63.98594       40.29532       74.05168
H         64.29472       39.87638       72.33988
N         66.72488       42.85223       74.05173
C         67.35244       43.84803       74.90918
C         66.57441       45.13484       75.06660
O         67.10446       46.02035       75.72391
H         66.52219       43.12448       73.07923
H         68.32623       44.11702       74.44494
H         67.56564       43.44506       75.92126
N         65.35267       45.35329       74.49468
C         64.74163       46.68299       74.50888
C         63.21728       46.71007       74.35792
O         62.68127       47.80842       74.37091
C         65.47090       47.57796       73.46967
C         65.56399       46.97470       72.08958
O         64.56614       46.75986       71.42768
O         66.77139       46.68271       71.56845
H         64.93985       44.61714       73.90905
H         64.89923       47.14797       75.50812
H         66.51357       47.72776       73.82170
H         65.00003       48.58309       73.41624
N         62.43558       45.59093       74.26509
C         60.97813       45.64080       74.14205
C         60.47926       46.26724       72.84420
O         59.27636       46.42031       72.69371
H         62.86331       44.66545       74.33294
H         60.57177       46.21358       75.00380
H         60.56890       44.60842       74.19647
N         61.34623       46.65668       71.87027
C         61.01392       47.33697       70.62577
C         60.21676       46.46724       69.67006
O         59.38720       46.98648       68.93644
C         60.38059       48.72770       70.87141
C         61.25531       49.59127       71.79690
C         60.72616       50.98629       72.01265
N         61.39700       51.83383       72.82675
O         59.70036       51.36080       71.46297
H         62.33992       46.47509       72.00924
H         61.98069       47.51229       70.10139
H         59.37163       48.61558       71.32434
H         60.27116       49.24521       69.89317
H         62.27876       49.66834       71.37089
H         61.31310       49.10408       72.78879
H         62.26150       51.53166       73.30059
H         61.05311       52.79202       72.98685
N         60.46505       45.12837       69.58988
C         59.84413       44.25118       68.59655
C         60.88462       43.45008       67.79966
O         60.48505       42.74146       66.88468
C         58.80669       43.31282       69.27791
C         59.43113       42.39817       70.34585
C         57.66349       44.13164       69.89979
H         61.10586       44.71343       70.28028
H         59.28924       44.86026       67.84950
H         58.35568       42.66637       68.49244
H         60.23127       41.76851       69.90490
H         59.85638       42.98856       71.18477
H         58.65474       41.72239       70.76464
H         56.89170       43.45659       70.32668
H         58.03809       44.79183       70.71049
H         57.17704       44.76178       69.12459
N         62.21497       43.46522       68.11218
C         63.22958       42.62652       67.47773
C         64.44938       43.47642       67.09213
O         64.45430       44.67095       67.36438
C         63.56999       41.53883       68.52611
C         64.64794       40.56102       68.15221
N         65.78684       40.49383       68.88175
O         64.49620       39.82372       67.18950
H         62.54297       44.02263       68.91170
H         62.83288       42.12916       66.56529
H         62.64803       40.95748       68.75023
H         63.86610       42.05745       69.45339
H         65.92702       41.10452       69.70048
H         66.53472       39.83201       68.63037
N         65.54024       42.91477       66.49033
C         66.79014       43.62406       66.23246
C         67.17976       43.44666       64.77853
O         67.19682       42.31176       64.31875
C         67.85751       43.07873       67.20368
C         69.07226       43.97602       67.26612
C         69.25011       44.82285       68.37450
C         70.02138       43.99835       66.23372
C         70.34689       45.68376       68.44090
C         71.12729       44.85233       66.30544
C         71.28968       45.70271       67.40954
O         72.34236       46.54094       67.49085
H         65.52333       41.91381       66.25697
H         66.67902       44.70560       66.46951
H         68.13455       42.02042       66.99946
H         67.38255       43.08893       68.20991
H         68.52815       44.83261       69.18191
H         69.90903       43.35211       65.38059
H         70.45967       46.33971       69.29485
H         71.85380       44.85509       65.50244
H         73.01733       46.58948       66.79939
N         67.49798       44.51660       63.98965
C         67.74714       44.39438       62.55693
C         69.19771       44.74010       62.21739
O         69.50141       45.91978       62.11143
C         66.70585       45.26861       61.81231
C         66.73026       45.19622       60.27462
C         67.90023       45.91351       59.66450
O         68.06589       47.23395       59.87893
O         68.68916       45.31439       58.95217
H         67.53499       45.45728       64.41189
H         67.53828       43.36491       62.23739
H         66.78370       46.33051       62.13543
H         65.70613       44.90062       62.13307
H         65.81728       45.70105       59.89145
H         66.69680       44.13385       59.95045
N         70.18569       43.79761       62.06694
C         70.02989       42.38043       62.39339
C         69.08594       41.61736       61.48633
O         68.72270       42.09043       60.41821
C         71.37766       41.62477       62.41357
C         72.38058       42.16679       63.44643
C         73.48617       41.18090       63.71732
O         74.25733       41.35265       64.80125
O         73.53613       40.11253       63.12561
H         71.13051       44.13784       61.82892
H         69.61128       42.33365       63.41645
H         71.84728       41.59832       61.40538
H         71.14309       40.57889       62.71050
H         71.84304       42.28942       64.40956
H         72.79758       43.15046       63.14610
N         68.62706       40.40262       61.90398
C         67.71250       39.59409       61.13470
H         66.77329       40.15541       60.94934
H         68.18255       39.30310       60.17321
H         67.46573       38.67107       61.70439
H         68.92166       40.04130       62.82494
Ca        73.82360       39.62621       66.14817
O         74.39588       36.99858       64.06043
H         75.11204       36.31558       64.09182
H         74.55726       37.48650       63.21412
O         75.92080       40.28940       68.17325
H         75.50979       40.89502       68.84006
H         76.52391       40.87133       67.64595
O         76.40037       39.38988       64.43113
H         77.22588       39.03892       64.84845
H         76.64211       40.30045       64.12660

Ca 1.0



