%chk=apoCaM-CA-Ng.loop2.water2.frame909.chk
%nprocshared=20
%mem=10GB
%nosave
#b3lyp/svp scf=(tight,noincore,xqc) Test 
#IOP(5/87=12) Density=Current Pop=(MK,readradii) iop(6/33=2) iop(6/42=6)

apoCaM-CA-Ng.loop2.water2.frame909 

   -2  1 
C        110.23506        3.18783      117.56586
C        110.98383        4.32655      118.19120
O        112.01951        4.72068      117.67331
H        109.21470        3.52421      117.28615
H        110.75535        2.82648      116.65321
H        110.15742        2.34912      118.28916
N        110.50985        4.90792      119.32886
C        111.19592        6.00723      120.00236
C        111.19307        7.30097      119.18028
O        111.83775        8.24877      119.60771
C        110.54499        6.24728      121.38487
C        111.30074        7.24152      122.22399
O        112.58255        7.00355      122.56302
O        110.75511        8.26402      122.60693
H        109.65093        4.51853      119.74925
H        112.24828        5.68577      120.17381
H        110.52634        5.28944      121.94878
H        109.49455        6.58594      121.24200
N        110.49972        7.42723      118.00680
C        110.47365        8.65476      117.21899
C        109.02925        9.10440      117.03255
O        108.26720        8.33135      116.46747
C        111.12336        8.39588      115.85709
H        109.95649        6.63233      117.64330
H        111.07402        9.43347      117.71847
H        110.58194        7.59750      115.30480
H        111.11808        9.32321      115.24571
H        112.17660        8.07178      115.99864
N        108.52325       10.29334      117.48545
C        109.27736       11.32384      118.20274
C        108.35577       12.29712      118.95017
O        107.14479       12.25407      118.78546
C        110.25214       12.07770      117.25991
C        109.55728       12.77422      116.12352
O        108.93735       12.13212      115.29069
O        109.66212       14.10884      115.99052
H        107.51126       10.43162      117.34598
H        109.84741       10.81689      119.01123
H        110.99162       11.38957      116.80963
H        110.82443       12.82472      117.84944
N        108.88462       13.13707      119.88677
C        108.08388       13.94922      120.79463
C        108.63227       15.35377      120.90766
O        109.23560       15.65056      121.92883
H        109.90235       13.10816      120.05287
H        108.18892       13.47910      121.79626
H        107.00042       13.94763      120.55535
N        108.51050       16.29233      119.93097
C        107.73576       16.12389      118.71453
C        106.24033       16.13473      119.01046
O        105.77057       17.05246      119.66876
C        108.08955       17.24655      117.71613
C        107.28306       17.10617      116.42703
N        107.82619       17.97138      115.38300
O        107.28737       15.76321      116.03286
H        108.99459       17.19352      120.07661
H        108.03638       15.17062      118.22861
H        109.17327       17.15785      117.47762
H        107.90244       18.25414      118.14699
H        107.82131       18.96026      115.72046
H        107.18825       17.93530      114.55783
N        105.42693       15.17082      118.48672
C        103.98805       15.10729      118.70651
C        103.17013       15.36252      117.44861
O        101.95601       15.24127      117.52672
H        105.84248       14.44744      117.88339
H        103.65995       15.85064      119.46439
H        103.74976       14.09722      119.10246
N        103.74135       15.77700      116.27949
C        102.98689       16.13178      115.07905
C        103.48885       15.36020      113.86933
O        104.67620       15.39455      113.57749
C        103.10344       17.65245      114.80267
C        102.32037       18.47665      115.82331
O        104.44239       18.07144      114.82555
H        104.75820       15.91394      116.24340
H        101.90182       15.91752      115.20030
H        102.63912       17.88527      113.81325
H        104.81226       17.89941      113.92594
H        101.24485       18.19767      115.79319
H        102.71215       18.31689      116.84874
H        102.40303       19.55562      115.56996
N        102.60506       14.69424      113.07179
C        102.98353       14.06907      111.80422
C        103.47809       15.16737      110.86808
O        102.71654       16.09481      110.62231
C        101.76975       13.29499      111.18369
C        102.15692       12.66191      109.81743
C        101.27066       12.20132      112.15827
C        100.99398       11.96697      109.10068
H        101.61229       14.69406      113.34865
H        103.78662       13.33076      111.98405
H        100.93963       14.01785      111.01530
H        102.98116       11.92985      109.95920
H        102.51643       13.45850      109.13275
H        102.06270       11.44258      112.33243
H        100.97018       12.61937      113.13871
H        100.36519       11.69550      111.76869
H        101.34090       11.59050      108.11540
H        100.62043       11.09249      109.67016
H        100.16051       12.68196      108.93337
N        104.72866       15.13487      110.30688
C        105.22979       16.21049      109.44275
C        105.38109       15.78532      108.00277
O        105.68555       16.64415      107.18976
C        106.65668       16.66376      109.83464
C        106.91298       16.69654      111.28597
O        106.27530       17.42022      112.02932
O        107.85926       15.87279      111.76551
H        105.33593       14.32180      110.49565
H        104.53417       17.07710      109.49297
H        106.89420       17.64563      109.37059
H        107.38954       15.92068      109.43963
N        105.35991       14.46637      107.64305
C        105.80315       14.03649      106.32721
C        105.96889       12.51939      106.29686
O        104.99741       11.82945      106.56240
C        104.85771       14.52488      105.20489
C        105.45326       14.20300      103.85573
C        105.36128       12.90494      103.32614
C        106.14803       15.19079      103.13522
C        105.95796       12.59831      102.10238
C        106.74994       14.87751      101.91341
C        106.65567       13.58209      101.39808
H        105.16032       13.74610      108.34810
H        106.78418       14.52045      106.16315
H        104.75488       15.62557      105.27470
H        103.83082       14.11192      105.29919
H        104.83029       12.12892      103.86139
H        106.24520       16.19553      103.52898
H        105.88466       11.59462      101.70562
H        107.29642       15.63740      101.37022
H        107.12524       13.33942      100.45445
N        107.15230       11.91912      105.93170
C        107.29400       10.47910      105.74221
C        107.11971        9.60779      106.97267
O        107.17754        8.39451      106.81526
C        108.73367       10.32078      105.23369
C        108.94686       11.61139      104.48208
C        108.32354       12.61893      105.43759
H        106.56070       10.18640      104.95761
H        109.43757       10.34750      106.09909
H        108.91900        9.39134      104.65443
H        109.99924       11.83205      104.20474
H        108.32910       11.57227      103.55607
H        108.99834       12.83591      106.29601
H        108.11278       13.53334      104.84674
N        106.97115       10.12113      108.22959
C        106.92924        9.25777      109.40858
C        105.71110        8.34229      109.45125
O        105.68877        7.45373      110.29226
C        107.01849       10.08066      110.71263
C        105.78000       10.95817      110.96438
C        105.92266       11.71582      112.24856
O        106.81660       12.53518      112.38763
O        105.04883       11.50384      113.25029
H        106.98142       11.14273      108.35817
H        107.83979        8.61743      109.36711
H        107.93066       10.71636      110.67078
H        107.13409        9.38045      111.57032
H        104.87785       10.31290      111.03534
H        105.62655       11.68046      110.13609
N        104.64687        8.51025      108.61591
C        103.48550        7.65045      108.68023
H        102.72871        7.97985      107.93730
H        103.77714        6.60281      108.45480
H        103.03224        7.69995      109.69361
H        104.63563        9.27770      107.93016
Ca       107.93822       15.55757      113.92379
O        106.07070       12.54719      115.77567
H        105.45023       12.49561      116.54421
H        106.28558       11.60211      115.57340
O        109.68421       13.50110      112.36009
H        110.13980       12.64185      112.17629
H        110.32476       14.19428      112.06084

Ca 1.0



