%chk=apoCaM-CA-Ng.loop4.water5.frame680.chk
%nprocshared=20
%mem=10GB
%nosave
#b3lyp/svp scf=(tight,noincore,xqc) Test 
#IOP(5/87=12) Density=Current Pop=(MK,readradii) iop(6/33=2) iop(6/42=6)

apoCaM-CA-Ng.loop4.water5.frame680 

   -3  1 
C        -23.89534       59.88004       90.10829
C        -24.93818       59.97364       91.18226
O        -25.31083       61.07415       91.56187
H        -23.01743       59.31718       90.48165
H        -24.31479       59.34286       89.23164
H        -23.56571       60.89038       89.78538
N        -25.47342       58.83333       91.70214
C        -26.52914       58.79273       92.70971
C        -27.77026       59.50074       92.19068
O        -28.29638       60.38179       92.85842
C        -26.04660       59.37315       94.06192
C        -24.82317       58.67144       94.57789
O        -23.69065       59.36661       94.79694
O        -24.85293       57.47532       94.81645
H        -25.13562       57.92832       91.33879
H        -26.80046       57.72547       92.87284
H        -26.85538       59.27020       94.81773
H        -25.81871       60.45498       93.95391
N        -28.26159       59.19132       90.95686
C        -29.38022       59.92053       90.35986
C        -30.70255       59.47220       90.99053
O        -30.71565       58.40899       91.59661
C        -29.31960       59.84479       88.78802
C        -29.48160       58.43675       88.14914
C        -27.98836       60.46006       88.30703
C        -30.89148       57.85270       88.24185
H        -27.75308       58.48929       90.40095
H        -29.22670       60.99105       90.60902
H        -30.10297       60.48147       88.34398
H        -28.74339       57.71559       88.55529
H        -29.28037       58.53349       87.05889
H        -27.11323       59.86888       88.64888
H        -27.95936       60.50469       87.19722
H        -27.88332       61.49949       88.68534
H        -31.62681       58.55585       87.79490
H        -30.92856       56.90045       87.67158
H        -31.18535       57.62025       89.27813
N        -31.86985       60.18743       90.92242
C        -31.99785       61.53537       90.37310
C        -31.23735       62.57160       91.19082
O        -30.99117       63.65173       90.67200
C        -33.47977       61.95140       90.21853
C        -34.28116       62.01842       91.49782
O        -33.73327       61.73126       92.69441
O        -35.45853       62.33480       91.44547
H        -32.71362       59.74408       91.31843
H        -31.59140       61.53326       89.35024
H        -33.97533       61.22216       89.54131
H        -33.52064       62.95010       89.73123
N        -30.84353       62.32319       92.47532
C        -30.07044       63.25955       93.27213
C        -30.76634       64.57981       93.51952
O        -31.88439       64.79696       93.07208
H        -31.07729       61.42256       92.91766
H        -29.10177       63.45071       92.76360
H        -29.85672       62.79801       94.26161
N        -30.12176       65.52271       94.25960
C        -30.68070       66.83577       94.56810
C        -30.86107       67.74342       93.34777
O        -31.41523       68.81856       93.53138
C        -29.85856       67.52146       95.69607
C        -28.36664       67.58735       95.47363
O        -27.53927       66.94684       96.32205
O        -27.89107       68.22349       94.55309
H        -29.20459       65.26483       94.65465
H        -31.69888       66.68648       94.99225
H        -30.01351       66.92409       96.62040
H        -30.25413       68.54144       95.89456
N        -30.46543       67.40340       92.08069
C        -30.69738       68.27481       90.92897
C        -29.90115       69.57033       90.96554
O        -30.08136       70.39603       90.08317
H        -30.01376       66.49597       91.90347
H        -31.78307       68.50289       90.86762
H        -30.40796       67.74010       89.99769
N        -28.97218       69.79283       91.93374
C        -28.10221       70.95222       92.04823
C        -27.17029       71.05597       90.85634
O        -26.80949       72.15495       90.45792
C        -28.87699       72.24741       92.37311
C        -29.78575       72.04857       93.60119
C        -30.48224       73.30409       94.05961
N        -31.33998       73.24480       95.10456
O        -30.27934       74.37369       93.50339
H        -28.81476       69.06632       92.62969
H        -27.43612       70.75803       92.91999
H        -29.49714       72.56133       91.50600
H        -28.13712       73.05020       92.58875
H        -29.18324       71.66230       94.45171
H        -30.56546       71.30034       93.34825
H        -31.52607       72.34883       95.57983
H        -31.82310       74.09196       95.43755
N        -26.71731       69.91518       90.25923
C        -25.74171       69.89092       89.17737
C        -24.52927       69.02974       89.52690
O        -23.57346       69.07042       88.76343
C        -26.39162       69.37819       87.85698
C        -26.95448       67.94869       87.98346
C        -27.49851       70.32708       87.37993
H        -27.09797       69.01699       90.58307
H        -25.35924       70.91988       88.99580
H        -25.60848       69.36683       87.06626
H        -26.16042       67.23699       88.28628
H        -27.77974       67.90024       88.72457
H        -27.35594       67.60812       87.00566
H        -27.91252       69.97473       86.41068
H        -28.32551       70.37577       88.11694
H        -27.08972       71.34844       87.22978
N        -24.51572       68.16538       90.59159
C        -23.43225       67.21745       90.82377
C        -23.04932       67.18284       92.29972
O        -23.79846       67.67499       93.13383
C        -23.93689       65.84444       90.31171
C        -22.90929       64.74173       90.21974
N        -22.57013       64.22586       89.01323
O        -22.40568       64.28176       91.23184
H        -25.34629       68.06191       91.18699
H        -22.54283       67.51560       90.22664
H        -24.32515       66.01651       89.28475
H        -24.79533       65.49942       90.92910
H        -22.99276       64.58359       88.14340
H        -21.88193       63.46230       88.94370
N        -21.87286       66.61781       92.68946
C        -21.48684       66.43270       94.09245
C        -20.00057       66.05627       94.20317
O        -19.34336       65.85387       93.19064
C        -22.42990       65.35286       94.70777
C        -22.15838       64.96403       96.14252
C        -21.78815       63.64232       96.44022
C        -22.27079       65.89411       97.19085
C        -21.50377       63.25953       97.75182
C        -21.98552       65.50863       98.50745
C        -21.59564       64.19388       98.79111
O        -21.31317       63.83968      100.06128
H        -21.23718       66.31102       91.93989
H        -21.59708       67.40397       94.62358
H        -22.34605       64.44859       94.06555
H        -23.48498       65.69260       94.65108
H        -21.71333       62.90764       95.65114
H        -22.56286       66.91628       96.98735
H        -21.20911       62.23758       97.95669
H        -22.06126       66.23337       99.30813
H        -21.03169       62.94288      100.29429
N        -19.38731       66.00359       95.42137
C        -17.96869       65.73861       95.61648
C        -17.80446       64.50643       96.51281
O        -17.36676       64.65518       97.64545
C        -17.35134       67.02093       96.23988
C        -15.81642       67.00027       96.39513
C        -15.05310       67.01763       95.09467
O        -13.70742       67.01752       95.12600
O        -15.62446       67.06230       94.01639
H        -19.92747       66.22266       96.26599
H        -17.46135       65.55725       94.65223
H        -17.80993       67.18046       97.24161
H        -17.61809       67.90324       95.61667
H        -15.49973       66.11996       96.98930
H        -15.51813       67.91049       96.95835
N        -18.15938       63.24271       96.12943
C        -18.66579       62.86588       94.81121
C        -17.60673       63.00189       93.72653
O        -16.45972       63.30529       94.02817
C        -19.23550       61.42826       94.84247
C        -18.20331       60.30866       95.07903
C        -18.87788       58.96361       95.15802
O        -18.20922       57.95741       95.32854
O        -20.21952       58.86609       95.05168
H        -18.07991       62.50765       96.84850
H        -19.52393       63.51877       94.57124
H        -19.75384       61.22384       93.88117
H        -19.99654       61.38265       95.64968
H        -17.65529       60.47293       96.02894
H        -17.47016       60.29569       94.24415
N        -17.92911       62.77094       92.42362
C        -16.95321       62.86445       91.35981
H        -16.12992       62.13931       91.53528
H        -17.43137       62.62718       90.38547
H        -16.53887       63.89369       91.31270
H        -18.89656       62.51806       92.17327
Ca       -21.36437       56.92501       95.10939
O        -21.53601       59.21616       92.58099
H        -21.77987       60.14429       92.82524
H        -20.79856       59.31645       91.92826
O        -23.48535       54.85729       95.89808
H        -23.13358       53.94084       96.02543
H        -23.86371       54.85282       94.98304
O        -19.57001       56.10952       92.75623
H        -19.23521       56.98988       92.45090
H        -19.13507       55.97002       93.63473
O        -22.90516       57.60983       97.72070
H        -22.08863       57.23569       98.13786
H        -22.96414       58.53312       98.07330
O        -19.92809       54.75173       96.61799
H        -20.24386       54.41432       95.74198
H        -19.24897       55.43550       96.38999

Ca 1.0



