%chk=apoCaM-CA-Ng.loop3.water2.frame532.chk
%nprocshared=20
%mem=10GB
%nosave
#b3lyp/svp scf=(tight,noincore,xqc) Test 
#IOP(5/87=12) Density=Current Pop=(MK,readradii) iop(6/33=2) iop(6/42=6)

apoCaM-CA-Ng.loop3.water2.frame532 

   0  1 
C         60.57515        1.73478       63.10309
C         59.68166        0.90360       63.97582
O         59.13002       -0.07280       63.48771
H         61.39552        1.09700       62.70871
H         59.99433        2.14567       62.25200
H         61.02883        2.57522       63.66876
N         59.51894        1.20636       65.29572
C         58.74546        0.36084       66.19460
C         57.27365        0.36865       65.82726
O         56.63953        1.40942       65.93671
C         58.96959        0.78565       67.66706
C         58.50357       -0.25930       68.64122
O         58.66799       -0.10505       69.84032
O         57.92918       -1.38187       68.17933
H         60.02487        2.01822       65.68248
H         59.13772       -0.66519       66.09039
H         58.48791        1.76629       67.87054
H         60.05494        0.89813       67.83925
N         56.66921       -0.76302       65.35786
C         55.25910       -0.79897       64.99396
C         54.40000       -0.65126       66.23661
O         53.66901        0.32552       66.32976
C         54.92424       -2.09671       64.22050
C         53.45975       -2.13915       63.74675
C         53.18339       -3.39662       62.91173
C         51.71913       -3.45246       62.45365
N         51.46922       -4.64643       61.64572
H         57.24077       -1.61135       65.22120
H         55.06172        0.04503       64.29311
H         55.13805       -2.98912       64.84683
H         55.58419       -2.14140       63.32571
H         53.24693       -1.24062       63.12643
H         52.78332       -2.13199       64.62902
H         53.40275       -4.29954       63.52026
H         53.84609       -3.39545       62.01835
H         51.47914       -2.54777       61.85176
H         51.05306       -3.46773       63.34514
H         51.67993       -5.50829       62.19971
H         50.46287       -4.66483       61.36219
H         52.06217       -4.62769       60.78418
N         54.41410       -1.59887       67.22390
C         53.53903       -1.51457       68.39255
C         53.96101       -0.39347       69.35945
O         53.23010       -0.14407       70.30728
C         53.36241       -2.91706       69.05120
C         54.57033       -3.38907       69.79164
O         54.87036       -2.85720       70.84102
O         55.42323       -4.27675       69.26356
H         55.00519       -2.43452       67.09860
H         52.52271       -1.27171       68.01014
H         53.11899       -3.64072       68.24295
H         52.51067       -2.91627       69.76448
N         55.09935        0.35020       69.16340
C         55.46990        1.51106       69.96941
C         55.84540        1.22079       71.41075
O         56.06992        2.17531       72.14185
H         55.70898        0.14681       68.36229
H         54.62117        2.22817       69.95348
H         56.34426        2.01602       69.50290
N         55.92541       -0.04691       71.89779
C         56.17874       -0.37343       73.29633
C         57.36704       -1.31562       73.43795
O         57.75834       -1.96337       72.47617
C         54.90002       -1.04231       73.85162
C         54.98778       -1.44859       75.30035
N         54.88275       -2.75182       75.65537
O         55.14897       -0.59604       76.16049
H         55.76265       -0.81962       71.25390
H         56.38863        0.55281       73.87565
H         54.68111       -1.94010       73.23590
H         54.04294       -0.34366       73.73731
H         54.74800       -3.48600       74.94409
H         54.94131       -3.03276       76.64494
N         57.97025       -1.45152       74.65199
C         59.01377       -2.41398       74.95351
C         60.22968       -2.27505       74.07043
O         60.79015       -1.19215       73.97825
H         57.65399       -0.85406       75.43045
H         58.59451       -3.44037       74.87589
H         59.33112       -2.26612       76.00891
N         60.73157       -3.37663       73.44219
C         61.95261       -3.36298       72.64191
C         61.75579       -2.66014       71.30447
O         60.66853       -2.18182       71.01675
C         62.48981       -4.80801       72.48097
C         62.93164       -5.37431       73.81465
C         62.30956       -6.50885       74.36165
C         63.98818       -4.76835       74.52146
C         62.73237       -7.02090       75.59454
C         64.40675       -5.28004       75.75140
C         63.77950       -6.40911       76.29327
O         64.17524       -6.91377       77.47953
H         60.26804       -4.28312       73.61173
H         62.72890       -2.78270       73.18505
H         63.37688       -4.83729       71.81681
H         61.70569       -5.44218       72.01880
H         61.49755       -6.99661       73.83770
H         64.49376       -3.89871       74.12130
H         62.24569       -7.89507       76.00798
H         65.21986       -4.79813       76.28037
H         64.89607       -6.51900       77.99150
N         62.83013       -2.50856       70.47302
C         62.88881       -1.69083       69.26341
C         61.97099       -2.15392       68.13307
O         60.76193       -2.17044       68.30393
C         62.61274       -0.18589       69.58570
C         62.84896        0.74123       68.35631
C         63.42946        0.30708       70.79549
C         64.29155        0.80152       67.84187
H         63.72605       -2.92537       70.76571
H         63.93788       -1.75209       68.90637
H         61.54227       -0.07856       69.86657
H         62.53915        1.77402       68.62772
H         62.20998        0.41615       67.51046
H         63.19815        1.37407       71.00161
H         63.16680       -0.26532       71.70920
H         64.51882        0.19554       70.62284
H         64.98079        1.18323       68.62154
H         64.64120       -0.18943       67.49161
H         64.33921        1.49664       66.97770
N         62.48953       -2.37855       66.88837
C         61.65214       -2.41215       65.68826
C         60.73425       -3.61980       65.55588
O         59.86078       -3.57694       64.69913
C         62.50398       -2.25942       64.41613
O         63.20353       -1.04121       64.43693
H         63.51260       -2.33546       66.77232
H         61.01955       -1.51163       65.72719
H         61.84807       -2.24791       63.51903
H         63.19978       -3.12191       64.29810
H         64.09891       -1.21875       64.82522
N         60.88359       -4.74501       66.30657
C         60.02867       -5.91727       66.12474
C         58.61591       -5.64456       66.62210
O         58.50377       -5.25819       67.77326
C         60.60658       -7.11400       66.88818
H         61.66334       -4.79361       66.97915
H         60.04752       -6.19948       65.06405
H         60.65497       -6.91257       67.97663
H         59.97796       -8.01422       66.71949
H         61.63157       -7.33388       66.52069
N         57.46894       -5.84342       65.89946
C         57.36422       -6.35141       64.53196
C         58.01750       -7.72358       64.42147
O         57.64854       -8.59501       65.19666
C         55.87909       -6.46879       64.14483
H         56.58413       -5.63494       66.39158
H         57.81687       -5.61215       63.84805
H         55.34763       -7.16560       64.82895
H         55.39332       -5.47373       64.21027
H         55.75594       -6.84478       63.10943
N         59.02024       -8.01746       63.53694
C         59.51387       -7.12005       62.49305
C         60.89394       -7.56147       62.04248
O         61.83021       -6.78335       62.17137
C         58.50390       -7.06938       61.32544
C         58.86451       -6.01489       60.27151
C         57.81667       -5.96114       59.19536
O         57.59873       -6.93870       58.49719
O         57.11093       -4.83116       58.99638
H         59.45276       -8.95119       63.62001
H         59.64658       -6.09850       62.90125
H         57.50747       -6.80056       61.72171
H         58.41930       -8.07395       60.85558
H         59.84837       -6.24246       59.81014
H         58.92353       -5.02008       60.76539
N         61.10828       -8.80605       61.53580
C         62.43063       -9.25500       61.15805
H         63.10759       -9.21465       62.03925
H         62.38715      -10.30311       60.79497
H         62.83682       -8.60886       60.35157
H         60.32001       -9.46273       61.43580
Ca        57.38742       -3.22924       69.30752
O         57.35022       -5.92674       71.00030
H         56.97693       -6.65013       71.56320
H         57.32422       -6.29130       70.07997
O         60.20185       -5.04486       69.96585
H         60.05303       -5.99980       70.18073
H         61.09566       -5.02176       69.54037

Ca 1.0



