%chk=apoCaM-CA-Ng.loop3.water3.frame625.chk
%nprocshared=20
%mem=10GB
%nosave
#b3lyp/svp scf=(tight,noincore,xqc) Test 
#IOP(5/87=12) Density=Current Pop=(MK,readradii) iop(6/33=2) iop(6/42=6)

apoCaM-CA-Ng.loop3.water3.frame625 

   0  1 
C         88.00833       37.90400      -22.06533
C         88.49693       37.96641      -23.48343
O         87.96838       38.75163      -24.25743
H         86.93762       37.61837      -22.04157
H         88.59014       37.17069      -21.46724
H         88.13213       38.90359      -21.59530
N         89.54578       37.19634      -23.88326
C         90.15887       37.32484      -25.19745
C         89.22352       36.86085      -26.31254
O         88.85421       35.69555      -26.34860
C         91.49382       36.54630      -25.22150
C         92.37003       36.86455      -26.39848
O         93.58676       36.29722      -26.48492
O         92.00918       37.64365      -27.26489
H         89.98036       36.56539      -23.19164
H         90.41737       38.39912      -25.32587
H         91.30212       35.45295      -25.17201
H         92.08230       36.82859      -24.32724
N         88.82213       37.74140      -27.27171
C         87.99154       37.39755      -28.42840
C         88.68043       36.38423      -29.33170
O         88.02763       35.45559      -29.78717
C         87.65380       38.69513      -29.20604
C         86.83851       38.46175      -30.49161
C         86.28199       39.78720      -31.03383
C         85.54596       39.58862      -32.36668
N         84.87064       40.81974      -32.77942
H         89.14125       38.71880      -27.18057
H         87.01857       36.97466      -28.08935
H         88.58136       39.24690      -29.47782
H         87.06110       39.33281      -28.51263
H         85.97720       37.79182      -30.27918
H         87.49114       37.97653      -31.25102
H         87.10065       40.52529      -31.18225
H         85.57085       40.19233      -30.28042
H         84.78598       38.78285      -32.26606
H         86.27974       39.28350      -33.14646
H         84.41805       40.66914      -33.70995
H         84.12775       41.06390      -32.08390
H         85.55367       41.60785      -32.85478
N         90.00136       36.50922      -29.62816
C         90.72584       35.65480      -30.56814
C         91.68826       34.67928      -29.89288
O         92.31712       33.90682      -30.60372
C         91.44517       36.55055      -31.60312
C         92.26138       37.65828      -30.97465
O         92.00278       38.82227      -31.23424
O         93.23949       37.38837      -30.09364
H         90.52025       37.26189      -29.15944
H         90.01960       34.99734      -31.12223
H         90.67166       37.02474      -32.24532
H         92.09000       35.92776      -32.25939
N         91.81145       34.59777      -28.54044
C         92.62344       33.59791      -27.85940
C         94.12897       33.66908      -28.08066
O         94.79599       32.83011      -27.48916
H         91.23377       35.20719      -27.95163
H         92.26953       32.58778      -28.16139
H         92.44869       33.69370      -26.76504
N         94.75066       34.58339      -28.89221
C         96.20271       34.58921      -29.10843
C         96.83494       35.93271      -28.75854
O         96.12048       36.87063      -28.43379
C         96.54422       34.17466      -30.56855
C         96.62189       35.30824      -31.57687
N         95.55551       36.07568      -31.88653
O         97.69383       35.53667      -32.11952
H         94.18305       35.27280      -29.39075
H         96.66387       33.81640      -28.45665
H         95.85022       33.37571      -30.91085
H         97.55872       33.71938      -30.54588
H         94.63904       35.90238      -31.46458
H         95.65349       36.85088      -32.56031
N         98.18366       36.10422      -28.86836
C         98.85720       37.38713      -28.71759
C         98.71154       37.96889      -27.33250
O         99.11359       37.32338      -26.37517
H         98.76310       35.29453      -29.13853
H         98.46092       38.08970      -29.48176
H         99.94094       37.25083      -28.92005
N         98.13476       39.19481      -27.15761
C         97.90381       39.80014      -25.84970
C         96.38220       39.80467      -25.61334
O         95.93720       38.49641      -25.73901
C         98.50172       41.22541      -25.78718
C         99.98932       41.29426      -26.03255
C        100.50105       42.13238      -27.03919
C        100.88314       40.56335      -25.23179
C        101.88102       42.23988      -27.23676
C        102.26216       40.66576      -25.43727
C        102.76593       41.50852      -26.43840
O        104.09413       41.62786      -26.63733
H         97.78729       39.69996      -27.98687
H         98.35843       39.18560      -25.04285
H         98.34167       41.64243      -24.77207
H         97.96524       41.87617      -26.51250
H         99.83535       42.71848      -27.66094
H        100.51600       39.91876      -24.44413
H        102.26300       42.89905      -28.00654
H        102.93782       40.09639      -24.81180
H        104.73996       41.14550      -26.10159
N         95.97432       40.41322      -24.33678
C         94.54491       40.35297      -23.92628
C         93.53637       40.82929      -25.03670
O         93.07876       39.74071      -25.79495
C         94.17778       38.98559      -23.25482
C         92.75639       38.95951      -22.62053
C         95.23242       38.57656      -22.20919
C         92.52192       39.95228      -21.47486
H         96.20551       41.42973      -24.40890
H         94.48594       41.10688      -23.11035
H         94.18745       38.19542      -24.03384
H         92.56310       37.93937      -22.22331
H         91.99539       39.14208      -23.40468
H         94.96593       37.59615      -21.75908
H         96.22987       38.46158      -22.68278
H         95.31878       39.33332      -21.40278
H         93.20782       39.75575      -20.62674
H         92.64659       41.00129      -21.80450
H         91.48111       39.83987      -21.10487
N         92.36705       41.46622      -24.40123
C         91.15488       41.59527      -25.24036
C         91.13572       42.79025      -26.18167
O         90.29288       42.78096      -27.07001
C         89.91999       41.58566      -24.33654
O         89.94585       42.68703      -23.46844
H         92.60869       42.32728      -23.86223
H         91.03923       40.69738      -25.88099
H         89.93570       40.63076      -23.75916
H         88.98949       41.61064      -24.94429
H         89.53332       42.38924      -22.61609
N         91.96584       43.86924      -26.05668
C         91.88776       44.98626      -26.99497
C         92.48561       44.58255      -28.33739
O         93.22179       43.60799      -28.36524
C         92.64572       46.20026      -26.44510
H         92.62563       43.92950      -25.27010
H         90.81604       45.26213      -27.08903
H         92.20662       46.50702      -25.47119
H         93.71840       45.95596      -26.28950
H         92.57858       47.05702      -27.14453
N         92.27647       45.25745      -29.50547
C         91.35882       46.37030      -29.71094
C         92.13311       47.59632      -30.16689
O         93.00367       47.43987      -31.01208
C         90.33960       45.97155      -30.77897
H         92.78365       44.91868      -30.33948
H         90.79369       46.57463      -28.79416
H         89.77848       45.07272      -30.44438
H         89.61461       46.79593      -30.94391
H         90.84429       45.73887      -31.74131
N         91.92319       48.85693      -29.68381
C         90.83237       49.27970      -28.81055
C         91.38582       49.66054      -27.45688
O         90.95535       49.08701      -26.46503
C         90.05838       50.44076      -29.46926
C         89.44740       50.00927      -30.81554
C         88.65961       51.11819      -31.44934
O         87.34815       50.95071      -31.70678
O         89.20539       52.16658      -31.75445
H         92.56403       49.59749      -30.01136
H         90.08314       48.48337      -28.65164
H         90.73569       51.30799      -29.63035
H         89.23683       50.75853      -28.78901
H         88.77538       49.13920      -30.65104
H         90.25048       49.70407      -31.52056
N         92.36905       50.59242      -27.33198
C         92.95160       50.91431      -26.04765
H         93.75364       51.67143      -26.17343
H         92.17414       51.31925      -25.36632
H         93.39721       50.00014      -25.59773
H         92.73603       51.06827      -28.16916
Ca        94.51088       39.01177      -27.34410
O         95.77302       39.19274      -30.42377
H         96.66784       39.35340      -30.81552
H         95.15638       39.72750      -30.98414
O         91.95702       40.48493      -28.63846
H         91.31354       40.89547      -29.26870
H         92.73328       41.09850      -28.64062
O         95.82687       41.48521      -28.24778
H         95.42559       42.35563      -28.00662
H         96.39291       41.67852      -29.03605

Ca 1.0



