%chk=apoCaM-CA-Ng.loop4.water3.frame561.chk
%nprocshared=20
%mem=10GB
%nosave
#b3lyp/svp scf=(tight,noincore,xqc) Test 
#IOP(5/87=12) Density=Current Pop=(MK,readradii) iop(6/33=2) iop(6/42=6)

apoCaM-CA-Ng.loop4.water3.frame561 

   -3  1 
C         50.63319       20.29530       69.72561
C         49.85689       19.14590       69.14796
O         50.14887       18.00915       69.48569
H         51.70477       20.20071       69.45396
H         50.25897       21.27091       69.34779
H         50.53299       20.29122       70.83150
N         48.83833       19.37862       68.26955
C         47.98958       18.36515       67.63847
C         47.05698       17.64761       68.61641
O         46.25272       16.85143       68.14892
C         48.80119       17.29110       66.87005
C         49.92189       17.77464       65.99314
O         50.63332       16.94547       65.44859
O         50.25569       19.07383       65.90182
H         48.65243       20.35682       67.99851
H         47.34569       18.90132       66.90556
H         48.10567       16.67473       66.26031
H         49.27141       16.61605       67.61198
N         47.11647       17.82472       69.97187
C         46.28431       17.04996       70.89199
C         44.81758       17.43710       70.73207
O         44.56105       18.53586       70.25820
C         46.75388       17.20851       72.37764
C         46.57927       18.66315       72.89876
C         48.20142       16.69621       72.53309
C         46.94584       18.83699       74.37319
H         47.79713       18.47867       70.36629
H         46.42343       15.98598       70.61633
H         46.12281       16.55625       73.01250
H         45.51121       18.95161       72.79931
H         47.18475       19.37825       72.30520
H         48.50814       16.67975       73.59802
H         48.27867       15.65166       72.16258
H         48.92300       17.32485       71.97260
H         46.34922       18.14601       75.00541
H         48.02687       18.65787       74.54211
H         46.72796       19.88067       74.68408
N         43.77525       16.63962       71.10876
C         43.87469       15.25756       71.57455
C         44.39895       14.37158       70.46528
O         45.33368       13.61350       70.68517
C         42.48412       14.72188       71.98362
C         41.89050       15.51220       73.11559
O         42.52983       15.58613       74.29855
O         40.82112       16.08276       72.97074
H         42.82872       17.03981       71.00571
H         44.52182       15.18094       72.47136
H         42.57944       13.66412       72.31545
H         41.79373       14.74691       71.11098
N         43.82404       14.42724       69.23193
C         44.18762       13.55716       68.13440
C         43.70517       12.15867       68.41423
O         42.52158       11.98708       68.67277
H         43.08259       15.12207       69.05687
H         45.28142       13.61163       67.93626
H         43.66026       13.90219       67.21949
N         44.55323       11.09844       68.34427
C         44.10509        9.72464       68.55803
C         43.73170        9.40560       70.00961
O         43.32671        8.27610       70.24926
C         45.13985        8.71033       68.00142
C         46.53852        8.77364       68.56455
O         47.36943        7.96827       68.17665
O         46.90914        9.72196       69.44442
H         45.52556       11.27644       68.05131
H         43.19098        9.56060       67.94392
H         45.22502        8.86895       66.90424
H         44.74166        7.68329       68.15584
N         43.82510       10.31213       71.03242
C         43.52104        9.96107       72.41781
C         44.55019        9.01843       73.02798
O         44.37418        8.60576       74.16459
H         44.11821       11.27883       70.84536
H         42.50413        9.51426       72.46567
H         43.51874       10.88230       73.04022
N         45.67109        8.67290       72.33667
C         46.75331        7.82045       72.79547
C         47.47750        8.43076       73.98049
O         47.83551        7.72195       74.91112
C         46.30171        6.35640       72.98592
C         45.63672        5.81964       71.70214
C         45.25169        4.36404       71.77243
N         44.63678        3.78633       70.71425
O         45.48993        3.69935       72.77038
H         45.81272        9.06209       71.40500
H         47.51043        7.81286       71.97750
H         45.58726        6.27644       73.83329
H         47.19795        5.73930       73.21719
H         46.33199        5.94913       70.84432
H         44.71456        6.40406       71.50198
H         44.42533        4.33452       69.86684
H         44.36825        2.79169       70.74036
N         47.76016        9.76645       73.97191
C         48.59715       10.43393       74.96678
C         49.75548       11.19630       74.32471
O         50.63266       11.62588       75.06251
C         47.77158       11.43105       75.83167
C         47.13004       12.55642       74.99415
C         46.69553       10.70623       76.64598
H         47.34907       10.33012       73.21652
H         49.04517        9.67295       75.64396
H         48.46448       11.90743       76.56188
H         47.90130       13.12498       74.43259
H         46.39031       12.15138       74.27245
H         46.60702       13.27577       75.65890
H         45.95336       10.21895       75.98006
H         47.16374        9.93602       77.29482
H         46.16533       11.43121       77.30069
N         49.77359       11.51873       72.99501
C         50.75114       12.44580       72.43922
C         52.11417       11.76566       72.31615
O         52.20253       10.55472       72.47055
C         50.22549       12.95163       71.06121
C         50.82664       14.22226       70.49837
N         50.48534       14.62554       69.25470
O         51.57544       14.92109       71.16037
H         49.01051       11.21575       72.37953
H         50.79728       13.31836       73.12855
H         49.14174       13.18611       71.15372
H         50.32101       12.12267       70.32829
H         49.83560       14.07096       68.67873
H         50.88378       15.49113       68.86360
N         53.22167       12.49940       72.03103
C         54.55397       11.94942       71.77373
C         55.58919       13.06853       71.65127
O         55.22852       14.23808       71.69330
C         54.51511       11.05167       70.50215
C         53.84664       11.72140       69.31322
C         54.43452       12.81502       68.65346
C         52.60090       11.24609       68.85961
C         53.78212       13.42501       67.57460
C         51.95010       11.86049       67.78673
C         52.53509       12.95231       67.14191
O         51.89046       13.53788       66.11214
H         53.10097       13.51061       72.00117
H         54.86931       11.33482       72.64527
H         53.93213       10.14380       70.76213
H         55.52568       10.68527       70.22335
H         55.39608       13.19607       68.96601
H         52.11938       10.40691       69.34633
H         54.24247       14.26674       67.07537
H         50.98564       11.49018       67.46095
H         52.25585       14.30020       65.64103
N         56.91420       12.78015       71.50726
C         57.92651       13.82052       71.35763
C         58.53983       13.68350       69.97569
O         59.21850       12.69351       69.74000
C         58.98653       13.73270       72.47161
C         58.36927       13.96982       73.86041
C         59.41452       13.91767       74.93734
O         59.32153       13.00671       75.92490
O         60.34365       14.70979       74.93325
H         57.21454       11.79341       71.47663
H         57.47022       14.81847       71.45966
H         59.75749       14.51356       72.28739
H         59.47930       12.73547       72.44907
H         57.59826       13.19568       74.06516
H         57.88103       14.96848       73.89001
N         58.29640       14.56904       68.96147
C         57.42972       15.73752       69.07369
C         58.12480       16.86944       69.80496
O         59.19409       17.28647       69.38186
C         56.93581       16.20877       67.68610
C         56.01533       17.43594       67.85265
C         55.19373       17.81740       66.66101
O         55.17255       17.14356       65.64322
O         54.38836       18.88870       66.79504
H         58.68486       14.34264       68.03217
H         56.49270       15.44294       69.59534
H         56.36351       15.36597       67.24207
H         57.77772       16.45994       67.00492
H         56.63032       18.31083       68.15296
H         55.27873       17.23051       68.66046
N         57.51687       17.46413       70.87100
C         58.05366       18.61969       71.55958
H         59.02755       18.94901       71.14135
H         57.33500       19.46229       71.46415
H         58.18620       18.38286       72.63480
H         56.60159       17.11227       71.19040
Ca        52.48294       19.30713       65.67282
O         51.08412       19.80951       62.87882
H         51.69156       20.53659       62.59085
H         50.60820       19.54074       62.05337
O         55.12914       21.62884       65.95890
H         55.39385       21.33774       65.05023
H         55.78709       21.19563       66.55915
O         54.25677       18.94189       62.99922
H         53.89342       18.16912       63.49999
H         55.12621       18.62300       62.64938

Ca 1.0



