%chk=apoCaM-CA-Ng.loop4.water5.frame1025.chk
%nprocshared=20
%mem=10GB
%nosave
#b3lyp/svp scf=(tight,noincore,xqc) Test 
#IOP(5/87=12) Density=Current Pop=(MK,readradii) iop(6/33=2) iop(6/42=6)

apoCaM-CA-Ng.loop4.water5.frame1025 

   -3  1 
C         31.49044       66.75558       49.46823
C         32.09722       65.75174       48.51759
O         32.52173       64.71078       48.99603
H         30.62987       66.29885       49.99750
H         32.25840       67.04454       50.21819
H         31.13837       67.68540       48.98801
N         32.23070       65.96144       47.17375
C         31.76119       67.15302       46.47513
C         30.25024       67.08817       46.32426
O         29.56346       67.91270       46.91045
C         32.43797       67.28155       45.10086
C         33.93597       67.35019       45.23183
O         34.63711       66.49133       44.72103
O         34.51085       68.35427       45.92074
H         32.72546       65.23669       46.62892
H         32.06666       68.05668       47.04688
H         32.08078       68.19840       44.58470
H         32.16891       66.40603       44.48739
N         29.66654       66.12251       45.54807
C         28.22442       65.92838       45.44248
C         27.70108       66.40126       44.08993
O         26.76853       67.19428       44.09981
C         27.81624       64.48565       45.91399
C         28.32748       63.27195       45.08309
C         28.30147       64.30440       47.36852
C         27.51423       62.96156       43.82779
H         30.26824       65.46987       45.02833
H         27.71023       66.59359       46.17439
H         26.70550       64.42516       45.95566
H         28.20182       62.35231       45.69683
H         29.40967       63.36352       44.85585
H         29.41118       64.31490       47.42529
H         27.90181       65.11147       48.01878
H         27.94235       63.33807       47.78299
H         27.90994       62.03930       43.35157
H         26.44955       62.78892       44.09316
H         27.55902       63.75403       43.08275
N         28.26128       66.03127       42.89760
C         27.75265       66.50882       41.60628
C         28.81569       67.30490       40.86031
O         29.97105       67.30943       41.25647
C         27.24812       65.30324       40.77861
C         26.60642       65.67961       39.47242
O         27.07191       65.27430       38.41909
O         25.50128       66.44990       39.45933
H         29.07289       65.39563       42.90170
H         26.89415       67.19521       41.77072
H         26.47775       64.75910       41.36343
H         28.09609       64.61154       40.59024
N         28.45639       68.07137       39.79380
C         29.36959       68.89411       39.02569
C         30.21680       68.07783       38.07086
O         31.08609       67.33491       38.50252
H         27.45870       68.14207       39.54965
H         29.99251       69.53176       39.68943
H         28.74832       69.59079       38.42201
N         29.99793       68.19699       36.72972
C         30.78181       67.56227       35.67685
C         29.87740       66.59685       34.90980
O         28.77798       67.00277       34.55824
C         31.29522       68.68923       34.75262
C         32.22479       68.20211       33.67975
O         31.93261       68.33762       32.50243
O         33.41178       67.66246       34.01396
H         29.22128       68.80193       36.41862
H         31.66031       67.03480       36.10296
H         31.85346       69.43679       35.35713
H         30.42534       69.20790       34.29031
N         30.23073       65.31872       34.57568
C         31.56359       64.76622       34.77822
C         31.73518       63.36899       34.17744
O         30.73515       62.75028       33.84221
H         29.52672       64.76145       34.06818
H         31.81773       64.73548       35.85833
H         32.23759       65.45409       34.27031
N         32.95172       62.75525       34.00666
C         34.27547       63.33076       34.24100
C         34.41660       63.76107       35.67981
O         34.56567       64.94146       35.96612
C         34.64071       64.41091       33.19132
C         34.60891       63.83292       31.76580
C         34.91174       64.88568       30.73286
N         34.08013       65.94039       30.56039
O         35.90537       64.77610       30.03038
H         32.94325       61.78683       33.64870
H         35.04028       62.53583       34.08352
H         35.66994       64.78065       33.39654
H         33.98008       65.28125       33.23932
H         33.60723       63.41047       31.53743
H         35.35762       63.01238       31.69872
H         33.22623       66.03820       31.12905
H         34.28106       66.65489       29.84549
N         34.41376       62.80110       36.64432
C         34.52600       63.07122       38.06806
C         33.39274       62.37026       38.79737
O         33.20666       61.17269       38.63128
C         35.92132       62.66176       38.62174
C         37.02510       63.52231       37.98790
C         36.26015       61.17865       38.43993
H         34.35535       61.81478       36.34606
H         34.44946       64.16393       38.26610
H         35.92543       62.87837       39.71340
H         38.00966       63.28093       38.44236
H         37.08739       63.34733       36.89289
H         36.82371       64.60025       38.16800
H         37.25371       60.95800       38.88529
H         35.52080       60.55478       38.96951
H         36.28575       60.89646       37.36688
N         32.60496       63.06838       39.65608
C         31.52084       62.46796       40.43546
C         31.98617       61.36142       41.38319
O         31.13508       60.69554       41.95383
C         30.82859       63.57964       41.25563
C         31.80916       64.21538       42.22214
N         32.31991       65.44214       41.97174
O         32.18820       63.59455       43.20474
H         32.79379       64.07649       39.75495
H         30.79219       62.02972       39.71781
H         29.94047       63.20419       41.80836
H         30.47318       64.34331       40.53080
H         32.05064       65.96798       41.13021
H         33.03527       65.84652       42.58847
N         33.30909       61.17467       41.66853
C         33.78916       60.20953       42.65917
C         35.22273       60.52179       43.08066
O         35.83913       61.42066       42.53308
C         33.57562       58.75318       42.16918
C         34.26486       58.42269       40.86255
C         35.66490       58.32741       40.78092
C         33.49813       58.18091       39.70805
C         36.28405       58.00411       39.56838
C         34.11869       57.86867       38.49523
C         35.51531       57.77991       38.42104
O         36.12730       57.48490       37.25639
H         33.98624       61.80974       41.23262
H         33.19436       60.35342       43.58881
H         32.48268       58.60528       42.04473
H         33.89170       58.02145       42.94252
H         36.28059       58.49130       41.65276
H         32.41737       58.24273       39.74121
H         37.36331       57.93469       39.51910
H         33.51237       57.69663       37.61463
H         35.63172       57.33499       36.43844
N         35.79919       59.83852       44.10611
C         37.10495       60.17691       44.65858
C         36.91056       60.45184       46.13692
O         37.15457       59.56457       46.94504
C         38.09235       59.02693       44.37012
C         39.52013       59.37111       44.82927
C         40.48568       58.28184       44.46435
O         40.66079       57.98101       43.29401
O         41.17991       57.64483       45.42628
H         35.27904       59.06186       44.54198
H         37.53685       61.08354       44.18007
H         38.11399       58.86771       43.26952
H         37.74701       58.08440       44.84956
H         39.54012       59.52131       45.92929
H         39.85435       60.31342       44.34265
N         36.39702       61.64547       46.56640
C         36.01379       61.83158       47.95926
C         34.80748       60.95020       48.21600
O         34.87033       60.07711       49.06997
C         35.64350       63.28410       48.35921
C         36.79816       64.30294       48.42140
C         37.03265       65.07344       47.15045
O         36.84238       66.28010       47.14625
O         37.46647       64.48793       46.02339
H         36.22117       62.39494       45.88355
H         36.85955       61.53188       48.62051
H         35.30946       63.18519       49.41812
H         34.78351       63.69927       47.79163
H         37.73029       63.83134       48.80033
H         36.49724       65.06506       49.17621
N         33.67349       61.12872       47.47811
C         32.47577       60.33143       47.63036
H         31.62459       60.99675       47.88597
H         32.25462       59.82096       46.66920
H         32.57736       59.56294       48.42414
H         33.65572       61.86462       46.75539
Ca        37.72833       65.89028       44.26524
O         39.07102       67.21924       41.81120
H         38.39845       66.81865       41.20509
H         39.74132       66.50286       41.94523
O         35.59301       66.31263       41.58324
H         35.06294       67.14545       41.66031
H         35.74432       66.20245       40.61096
O         39.96140       67.39534       45.72407
H         39.91367       66.43260       45.95146
H         39.14012       67.78423       46.11770
O         37.42726       63.67142       42.53102
H         36.54183       63.88407       42.92234
H         37.31082       63.82329       41.56051
O         36.80309       69.06715       43.60773
H         37.67127       69.45664       43.33373
H         36.17647       69.83391       43.60927

Ca 1.0



