%chk=apoCaM-CA-Ng.loop1.water3.frame746.chk
%nprocshared=20
%mem=10GB
%nosave
#b3lyp/svp scf=(tight,noincore,xqc) Test 
#IOP(5/87=12) Density=Current Pop=(MK,readradii) iop(6/33=2) iop(6/42=6)

apoCaM-CA-Ng.loop1.water3.frame746 

   0  1 
C         70.12141       33.57439       16.60991
C         71.33818       34.23804       17.18073
O         71.34855       35.45185       17.32734
H         69.33454       34.32203       16.37541
H         70.39032       33.02402       15.68505
H         69.71587       32.85636       17.35517
N         72.39870       33.47608       17.56150
C         73.59064       34.00656       18.21025
C         74.83371       33.63933       17.41114
O         75.10171       32.46382       17.22124
C         73.65225       33.54989       19.70382
C         72.59207       32.54109       20.13547
O         72.63654       31.24373       19.76872
O         71.67996       32.90950       20.85772
H         72.33693       32.45441       17.42928
H         73.55322       35.11896       18.23513
H         73.43478       34.46651       20.29767
H         74.67766       33.25163       20.01372
N         75.63584       34.61426       16.88659
C         76.83428       34.32061       16.10500
C         77.87584       33.62986       16.97111
O         78.31354       34.21239       17.95320
C         77.41862       35.62521       15.50702
C         78.67128       35.42972       14.62203
C         78.48188       34.53108       13.38509
C         77.41694       35.05364       12.40832
N         77.36080       34.22238       11.20548
H         75.37191       35.60174       17.02831
H         76.53583       33.67247       15.25354
H         77.69267       36.31549       16.33532
H         76.63299       36.13334       14.90909
H         79.49255       35.00247       15.23734
H         79.00772       36.43184       14.27607
H         78.23308       33.49443       13.69391
H         79.45420       34.49576       12.85212
H         77.66146       36.09871       12.11510
H         76.41930       35.04669       12.89731
H         76.61956       34.59225       10.56735
H         78.27937       34.25136       10.70555
H         77.12851       33.23448       11.45848
N         78.34921       32.39838       16.62365
C         79.42100       31.70438       17.34981
C         79.90876       30.46613       16.57554
O         79.20752       30.01323       15.68320
C         78.98509       31.32477       18.78185
C         77.72428       30.52890       18.76512
O         77.65632       29.43675       18.22469
O         76.64084       31.08833       19.30834
H         77.96596       31.98042       15.76455
H         80.24486       32.42551       17.42844
H         78.79604       32.25476       19.35788
H         79.75738       30.77150       19.34079
N         81.10278       29.84276       16.81722
C         82.12574       30.27693       17.75504
C         82.69965       31.62638       17.39894
O         82.28432       32.23482       16.42187
H         81.31929       28.99992       16.26223
H         82.96284       29.54558       17.73324
H         81.73706       30.28745       18.78736
N         83.67803       32.16608       18.17059
C         84.25091       33.47800       17.89986
C         84.84769       33.53483       16.49689
O         84.43557       34.38797       15.72296
C         85.21467       33.90585       19.03751
C         86.38700       32.99853       19.30760
O         87.30692       32.90962       18.51257
O         86.46119       32.33538       20.47801
H         84.00412       31.62985       18.99013
H         83.42651       34.22802       17.93664
H         84.60480       33.93951       19.96801
H         85.58891       34.93556       18.85353
N         85.79061       32.64203       16.08462
C         86.39065       32.66933       14.75893
C         85.51031       32.10419       13.65897
O         85.97868       32.06909       12.52840
H         86.12346       31.92220       16.73807
H         87.29870       32.03060       14.77783
H         86.71674       33.70532       14.51836
N         84.25484       31.62258       13.89225
C         83.40919       31.01344       12.86641
C         82.99373       29.61796       13.31214
O         83.26084       29.26488       14.45551
C         82.16116       31.89812       12.61341
C         82.52879       33.37227       12.39183
O         81.42109       31.42249       11.51717
H         83.87587       31.67711       14.83945
H         83.98389       30.92534       11.91818
H         81.50599       31.86424       13.51217
H         81.99291       31.51338       10.70861
H         83.00447       33.79275       13.30330
H         83.22700       33.48158       11.53613
H         81.61399       33.96227       12.18758
N         82.34828       28.74950       12.47572
C         81.97037       27.40382       12.92016
C         83.23063       26.60295       13.27966
O         83.13327       25.61039       13.98468
C         81.10193       26.62142       11.87214
C         79.97175       27.46187       11.21171
C         80.49007       25.34382       12.49141
C         78.99688       28.12462       12.18463
H         82.14888       29.05394       11.51482
H         81.35368       27.54821       13.83662
H         81.76360       26.30571       11.03459
H         79.39955       26.80952       10.51539
H         80.41008       28.25659       10.57684
H         79.89175       24.79424       11.73397
H         81.26492       24.63899       12.84662
H         79.82934       25.59220       13.34878
H         79.53015       28.83881       12.84542
H         78.24206       28.69464       11.60208
H         78.46445       27.37232       12.79920
N         84.45550       27.00420       12.82383
C         85.71434       26.34403       13.12908
C         86.36857       25.88796       11.84102
O         86.26747       26.56947       10.82983
C         86.65425       27.28224       13.93584
C         86.96531       28.62529       13.25254
O         86.13712       27.50652       15.22344
H         84.51802       27.82212       12.20499
H         85.55089       25.44683       13.76634
H         87.62057       26.74918       14.07127
H         85.27873       27.99037       15.12765
H         87.66299       29.21307       13.88528
H         87.44214       28.46749       12.26376
H         86.04444       29.22834       13.11808
N         87.11710       24.75324       11.83520
C         87.80041       24.25255       10.65177
C         87.63840       22.73997       10.59744
O         87.07589       22.22343        9.64216
C         89.27856       24.73461       10.66782
C         90.02961       24.31261        9.39956
O         89.95121       24.26922       11.80931
H         87.24902       24.25614       12.72849
H         87.34139       24.68857        9.73469
H         89.25506       25.84886       10.70248
H         90.85111       24.68734       11.81737
H         90.08939       23.20682        9.32631
H         89.51830       24.71631        8.50026
H         91.06213       24.72290        9.42179
N         88.12905       21.97553       11.61076
C         88.07575       20.52253       11.67570
C         87.78490       20.11139       13.10953
O         88.35273       20.70372       14.02001
C         89.39941       19.94600       11.14384
C         90.63222       20.33837       11.96760
C         91.91730       19.90821       11.26001
C         93.14019       20.26127       12.11266
N         94.37850       19.95006       11.40265
H         88.62814       22.45181       12.37189
H         87.28613       20.12503       10.99912
H         89.52017       20.32153       10.10262
H         89.33117       18.83663       11.09892
H         90.57095       19.85831       12.96782
H         90.67285       21.44033       12.09532
H         91.97976       20.44160       10.28517
H         91.90356       18.81286       11.06828
H         93.09978       19.68567       13.06459
H         93.12716       21.34696       12.35730
H         94.40865       18.93510       11.15311
H         94.44370       20.53039       10.53453
H         95.19068       20.17570       12.02083
N         86.90887       19.11341       13.40406
C         86.53460       18.82861       14.78219
C         85.72987       20.00015       15.34585
O         86.15022       20.53534       16.36148
C         85.81886       17.46819       14.91917
C         85.47723       17.15831       16.39133
C         84.86252       15.79930       16.58950
O         84.51321       15.41064       17.83044
O         84.67782       15.04156       15.64967
H         86.49765       18.55843       12.63793
H         87.46684       18.70728       15.38354
H         86.51370       16.68430       14.54335
H         84.90182       17.41601       14.30893
H         84.76048       17.91732       16.77182
H         86.40344       17.20829       17.00464
N         84.59439       20.50254       14.77108
C         84.00024       20.03572       13.53432
H         83.10802       20.65075       13.29316
H         84.71063       20.14645       12.69067
H         83.65577       18.99129       13.62246
H         84.13273       21.30239       15.23149
Ca        74.54652       30.45886       18.96973
O         75.66682       27.12993       17.63677
H         75.99289       26.64333       18.43492
H         76.41055       27.06178       16.98688
O         73.95418       28.20474       20.69028
H         73.90690       29.02967       21.23651
H         74.69198       27.68296       21.09371
O         76.17647       29.57725       15.41560
H         76.18120       30.02323       14.53191
H         76.83193       28.84113       15.32229

Ca 1.0



