%chk=apoCaM-CA-Ng.loop1.water3.frame246.chk
%nprocshared=20
%mem=10GB
%nosave
#b3lyp/svp scf=(tight,noincore,xqc) Test 
#IOP(5/87=12) Density=Current Pop=(MK,readradii) iop(6/33=2) iop(6/42=6)

apoCaM-CA-Ng.loop1.water3.frame246 

   0  1 
C         52.39535       22.17436       94.80583
C         52.09074       20.75378       95.19215
O         51.14175       20.52469       95.92751
H         53.27512       22.23257       94.12857
H         51.52401       22.60948       94.27208
H         52.60978       22.77522       95.71242
N         52.84621       19.73750       94.69763
C         52.56530       18.32764       94.94540
C         52.99841       17.85222       96.34078
O         52.91844       16.66046       96.56443
C         53.26943       17.45828       93.86876
C         52.77639       17.73411       92.46742
O         52.22610       16.84953       91.83007
O         52.95723       18.93953       91.89523
H         53.60993       19.97954       94.04771
H         51.47761       18.13410       94.81622
H         53.05019       16.39252       94.07851
H         54.37078       17.60073       93.91118
N         53.50093       18.66466       97.31727
C         54.08097       18.12934       98.56023
C         53.39220       18.65293       99.81771
O         53.12233       19.84522       99.85096
C         55.57122       18.50265       98.59192
C         56.32256       17.82907       97.43259
C         57.82209       18.13230       97.49699
C         58.60743       17.51312       96.32827
N         58.56661       16.04945       96.33595
H         53.56045       19.67986       97.15619
H         54.04705       17.03221       98.57572
H         56.01599       18.15281       99.54667
H         55.69057       19.60739       98.54090
H         55.91932       18.18859       96.46063
H         56.15904       16.73282       97.50364
H         58.23853       17.76284       98.45965
H         57.95903       19.23460       97.45552
H         59.66665       17.83947       96.41608
H         58.20894       17.89508       95.36206
H         59.16839       15.68858       95.56104
H         58.92655       15.68015       97.24563
H         57.59600       15.70676       96.17324
N         53.14490       17.89788      100.94927
C         53.43930       16.47295      101.18542
C         54.91424       16.16587      101.02990
O         55.29845       15.54924      100.04690
C         52.48381       15.54329      100.39957
C         51.07903       15.68475      100.91250
O         50.82407       16.48845      101.96507
O         50.16191       15.10807      100.35142
H         52.72995       18.39915      101.75058
H         53.21855       16.21835      102.24476
H         52.76547       14.48313      100.53247
H         52.50028       15.76739       99.31802
N         55.83104       16.53739      101.97117
C         55.47861       17.13053      103.26348
C         56.70108       17.52097      104.08103
O         57.80960       17.44063      103.57109
H         56.81825       16.32637      101.76159
H         54.88021       16.39105      103.83649
H         54.87469       18.04945      103.10908
N         56.61602       18.00610      105.35460
C         55.40158       18.07816      106.16294
C         55.06582       16.71188      106.71228
O         55.96042       16.02216      107.18545
C         55.60296       18.99739      107.38695
C         55.82188       20.43120      106.99499
O         56.79678       20.75456      106.33640
O         54.94202       21.37325      107.38520
H         57.49742       18.31385      105.79537
H         54.55459       18.50940      105.58336
H         56.45439       18.64427      108.00956
H         54.68211       18.95455      108.01316
N         53.77329       16.29888      106.78582
C         53.39931       15.03303      107.38277
C         53.93787       13.90239      106.56156
O         54.65707       13.05699      107.07555
H         53.02192       16.91477      106.43977
H         52.29035       14.94719      107.39445
H         53.75835       14.97802      108.43441
N         53.58268       13.82074      105.25463
C         53.96215       12.70385      104.40556
C         55.44755       12.78875      104.04088
O         56.05055       13.83864      104.22447
C         53.08847       12.70559      103.11545
C         51.57635       12.79984      103.38985
O         53.31073       11.52722      102.39583
H         52.96985       14.56120      104.88495
H         53.74707       11.76730      104.96687
H         53.39273       13.59026      102.51255
H         52.98319       11.68975      101.47222
H         51.28610       13.74602      103.88512
H         51.02572       12.77894      102.42513
H         51.24263       11.94652      104.01448
N         56.08177       11.72907      103.46167
C         57.41908       11.80087      102.86466
C         57.34689       11.56448      101.35170
O         58.37637       11.65049      100.69958
C         58.42801       10.82690      103.54920
C         57.94147        9.35455      103.52571
C         58.73796       11.30964      104.97740
C         59.00401        8.35387      103.99084
H         55.56174       10.84238      103.38215
H         57.83581       12.82788      102.96856
H         59.38308       10.88850      102.97959
H         57.67140        9.07693      102.48461
H         57.03994        9.23929      104.16456
H         57.83129       11.27540      105.61608
H         59.53651       10.69957      105.44571
H         59.11717       12.35412      104.94862
H         58.59597        7.32353      103.91960
H         59.90405        8.42089      103.34315
H         59.29825        8.52322      105.04587
N         56.15992       11.30071      100.72570
C         55.98947       11.14128       99.28882
C         55.03629       12.20622       98.75653
O         54.41129       12.90937       99.53311
C         55.46477        9.71725       98.96523
C         54.11238        9.39824       99.63323
O         56.41934        8.77544       99.38070
H         55.31096       11.23442      101.27713
H         56.96559       11.28349       98.77656
H         55.33881        9.64923       97.86003
H         56.20523        7.92406       98.91625
H         53.33668       10.13456       99.33704
H         53.76634        8.39019       99.32378
H         54.19956        9.38872      100.73968
N         54.91506       12.39867       97.41456
C         54.05216       13.42365       96.81938
C         52.56122       13.07125       96.94134
O         52.23210       12.02326       97.47988
C         54.47488       13.67516       95.34217
C         54.28286       12.47592       94.40639
O         55.82354       14.06817       95.31713
H         55.52927       11.83902       96.80758
H         54.23029       14.38616       97.34999
H         53.85229       14.50268       94.94984
H         55.93184       14.71509       94.57084
H         54.91424       11.61501       94.70376
H         53.22016       12.16062       94.38603
H         54.57952       12.76946       93.37647
N         51.60873       13.89527       96.40243
C         50.18133       13.59472       96.33199
C         49.27676       14.72553       96.85503
O         48.06692       14.58083       96.74634
C         49.84586       13.27308       94.85368
C         49.95839       14.48479       93.89654
C         49.69107       14.11148       92.43023
C         50.83575       13.29049       91.80879
N         50.54254       12.95893       90.41508
H         51.91622       14.73431       95.91099
H         49.95643       12.67543       96.91581
H         48.80779       12.87935       94.79064
H         50.52979       12.45971       94.53468
H         50.95267       14.97189       93.95058
H         49.19588       15.23263       94.20314
H         49.60163       15.05367       91.84616
H         48.72581       13.56522       92.35462
H         51.00064       12.34735       92.36884
H         51.77457       13.88805       91.85292
H         51.35600       12.44367       90.00721
H         49.69636       12.34595       90.36739
H         50.38023       13.82966       89.85892
N         49.76599       15.87666       97.41074
C         48.91343       17.00801       97.79831
C         48.26890       17.62202       96.57344
O         48.97555       18.02171       95.65835
C         49.73391       18.08441       98.55347
C         48.99478       19.41508       98.84887
C         47.61683       19.31119       99.47512
O         46.66094       19.78331       98.88135
O         47.40764       18.74593      100.68029
H         50.77827       15.96150       97.55895
H         48.12989       16.65747       98.50653
H         50.64156       18.34742       97.96833
H         50.08257       17.64264       99.49944
H         48.88291       19.95623       97.88405
H         49.64865       20.03831       99.49675
N         46.91843       17.77815       96.51856
C         46.26373       18.42750       95.40549
H         45.17087       18.48884       95.59481
H         46.65666       19.46079       95.28711
H         46.43875       17.85224       94.47312
H         46.33562       17.45989       97.30766
Ca        49.08001       17.84300      101.82541
O         46.62517       17.93173      104.46022
H         46.02834       18.66372      104.16260
H         46.30110       17.70046      105.36695
O         49.26942       15.74994      104.62270
H         48.85485       14.86329      104.47265
H         49.19380       15.89779      105.59885
O         46.89506       15.75322      101.89391
H         47.74372       15.50706      101.44826
H         46.27648       15.95585      101.14815

Ca 1.0



