%chk=apoCaM-CA-Ng.loop2.water7.frame60.chk
%nprocshared=20
%mem=10GB
%nosave
#b3lyp/svp scf=(tight,noincore,xqc) Test 
#IOP(5/87=12) Density=Current Pop=(MK,readradii) iop(6/33=2) iop(6/42=6)

apoCaM-CA-Ng.loop2.water7.frame60 

   -2  1 
C         58.40312       67.55523       95.68875
C         59.54458       68.45508       95.31357
O         60.02713       68.34463       94.19543
H         57.55617       67.72433       94.99002
H         58.72437       66.49480       95.61631
H         58.05126       67.75151       96.72307
N         60.02485       69.37997       96.19655
C         61.10621       70.30972       95.87424
C         62.32975       70.10191       96.77308
O         63.37113       70.66529       96.47411
C         60.53639       71.74292       95.98742
C         61.41080       72.82854       95.41815
O         62.50222       73.07852       95.90101
O         60.95916       73.57182       94.38948
H         59.57854       69.45077       97.12415
H         61.43331       70.13823       94.82536
H         60.30221       71.96869       97.05165
H         59.57948       71.77063       95.42105
N         62.28355       69.31319       97.88877
C         63.39559       69.08366       98.80662
C         64.53031       68.30767       98.15607
O         65.68883       68.61871       98.39972
C         63.85971       70.39635       99.46518
H         61.40400       68.84567       98.14380
H         63.01114       68.43689       99.61954
H         64.29771       71.09237       98.71960
H         63.00048       70.90121       99.95486
H         64.63179       70.19292      100.23698
N         64.26041       67.27097       97.30491
C         65.27440       66.42821       96.66590
C         66.26805       67.19274       95.79964
O         67.18198       66.56080       95.28586
C         66.02385       65.57289       97.70818
C         65.09692       64.63928       98.42776
O         64.45522       63.81062       97.80107
O         64.99908       64.68537       99.76863
H         63.27514       67.05993       97.08937
H         64.75811       65.71628       95.98258
H         66.56010       66.21858       98.43362
H         66.77657       64.93818       97.19145
N         66.14730       68.52635       95.54354
C         67.06565       69.25666       94.69477
C         67.11359       68.63958       93.32739
O         68.20114       68.38705       92.82812
H         65.35356       69.06090       95.91329
H         68.08195       69.28373       95.14719
H         66.70249       70.30291       94.59952
N         65.95506       68.33273       92.67969
C         65.92536       67.75500       91.34627
C         65.15238       68.66145       90.41809
O         64.48335       69.58112       90.87150
C         65.26199       66.35874       91.36503
C         66.00733       65.36619       92.22250
N         65.39053       64.73834       93.25199
O         67.17474       65.10823       91.97003
H         65.05551       68.51539       93.15242
H         66.95730       67.66006       90.94342
H         65.23150       65.94953       90.33220
H         64.21236       66.45510       91.72185
H         64.40273       64.92817       93.47460
H         65.89982       64.04928       93.82552
N         65.20853       68.44236       89.07905
C         64.42371       69.18655       88.11198
C         63.60642       68.23173       87.28400
O         63.71676       67.02538       87.46622
H         65.83231       67.70041       88.72543
H         65.10396       69.75149       87.44157
H         63.74098       69.90874       88.61034
N         62.75512       68.70375       86.33168
C         61.98450       67.79470       85.48548
C         61.03168       66.91365       86.28991
O         60.54036       65.94394       85.72735
C         61.24453       68.53126       84.34005
C         60.15707       69.50406       84.82183
O         62.16318       69.18444       83.49749
H         62.69260       69.72299       86.19752
H         62.72188       67.11375       85.00281
H         60.73495       67.76186       83.71967
H         62.50327       69.98944       83.96670
H         60.58316       70.31472       85.44764
H         59.65610       69.96289       83.94371
H         59.39084       68.96508       85.41083
N         60.74475       67.16130       87.60360
C         59.97579       66.24710       88.44246
C         60.84216       65.76274       89.59322
O         61.97301       66.21136       89.74056
C         58.62722       66.88219       88.90600
C         58.82457       68.18011       89.73416
C         57.72935       67.10434       87.67689
C         57.51099       68.80346       90.21769
H         61.11697       68.01050       88.05222
H         59.71992       65.32737       87.87139
H         58.09745       66.14499       89.54775
H         59.36094       68.94784       89.13896
H         59.43513       67.93998       90.63151
H         56.71047       67.42381       87.97255
H         58.16542       67.86550       87.00273
H         57.61058       66.15226       87.11610
H         56.92716       68.07417       90.81763
H         57.73034       69.69128       90.84712
H         56.89646       69.15449       89.36287
N         60.37494       64.79726       90.42667
C         61.15175       64.21250       91.50906
C         61.30063       62.71893       91.26239
O         62.42121       62.23139       91.23471
C         60.47168       64.53840       92.84815
C         61.32167       64.11930       94.01454
O         61.79994       64.96720       94.74994
O         61.57414       62.81741       94.24855
H         59.41694       64.44972       90.27564
H         62.16914       64.66652       91.55517
H         59.46427       64.07539       92.92038
H         60.34366       65.64368       92.89544
N         60.20053       61.93922       91.04192
C         60.26305       60.51135       90.74854
C         58.99374       59.85487       91.27707
O         57.91780       60.27600       90.87809
C         60.45193       60.29110       89.23349
C         60.69975       58.83604       88.89924
C         62.01593       58.37112       88.72403
C         59.63204       57.93112       88.76095
C         62.25934       57.02728       88.42559
C         59.88022       56.58869       88.45031
C         61.19259       56.13697       88.28624
H         59.27668       62.39210       91.02631
H         61.16359       60.08844       91.24018
H         61.34986       60.87383       88.93183
H         59.60467       60.69187       88.63454
H         62.85594       59.04586       88.83179
H         58.60946       58.26446       88.88185
H         63.27613       56.67641       88.30259
H         59.05564       55.89673       88.33635
H         61.38391       55.09761       88.05064
N         59.02208       58.84102       92.19571
C         57.83918       58.26427       92.82261
C         56.89087       59.29748       93.41162
O         55.70183       59.24482       93.13085
C         58.43074       57.40035       93.94711
C         59.70655       56.90773       93.31156
C         60.22958       58.17934       92.64885
H         57.31243       57.63121       92.07404
H         58.74489       58.03950       94.80446
H         57.74570       56.61532       94.33024
H         60.42839       56.40990       93.99258
H         59.41386       56.18639       92.51310
H         60.76545       58.84881       93.35667
H         60.89663       57.87223       91.81279
N         57.36321       60.27044       94.23924
C         56.52754       61.27399       94.89791
C         55.72915       62.07924       93.88932
O         54.52706       62.20949       94.07692
C         57.39516       62.18089       95.80302
C         57.96164       61.36026       96.98090
C         58.89197       62.14922       97.84971
O         60.04289       61.77177       98.00214
O         58.46646       63.24478       98.50243
H         58.38154       60.29806       94.40135
H         55.79416       60.76843       95.56691
H         56.77214       63.00082       96.22583
H         58.21401       62.63729       95.20323
H         58.51754       60.47683       96.60525
H         57.12069       60.99020       97.60728
N         56.30839       62.59426       92.76931
C         55.56013       63.31312       91.75377
H         54.49521       63.46447       92.03449
H         56.01928       64.30846       91.58700
H         55.58283       62.73901       90.80308
H         57.31159       62.43283       92.60083
Ca        59.93665       64.22763       99.90627
O         60.84795       64.79101      102.83208
H         60.02652       64.29104      103.06698
H         60.70213       65.69729      103.20311
O         57.41384       63.96440      101.31739
H         56.58555       63.46949      101.09759
H         57.59284       63.74883      102.26666
O         58.70524       66.76389      100.42216
H         59.18608       67.62249      100.52669
H         57.93817       66.97252       99.83220
O         60.13948       61.66793      101.60122
H         59.39424       61.31853      102.15069
H         60.46715       60.88176      101.09628
O         62.23782       66.11665      100.22502
H         62.56962       65.22519      100.49503
H         62.21094       66.63520      101.06757
O         62.52264       62.34121       99.93680
H         62.41159       62.99504       99.20241
H         63.41080       61.93426       99.77881
O         61.05270       65.09107       97.39859
H         60.93160       64.15815       97.09104
H         62.01009       65.14092       97.64108

Ca 1.0



