%chk=apoCaM-CA-Ng.loop4.water5.frame631.chk
%nprocshared=20
%mem=10GB
%nosave
#b3lyp/svp scf=(tight,noincore,xqc) Test 
#IOP(5/87=12) Density=Current Pop=(MK,readradii) iop(6/33=2) iop(6/42=6)

apoCaM-CA-Ng.loop4.water5.frame631 

   -3  1 
C          1.46881       43.77525        3.10054
C          2.22497       45.05387        2.90125
O          2.36125       45.48215        1.76915
H          0.43305       43.89583        2.72174
H          1.96816       42.95701        2.54257
H          1.42472       43.49438        4.17380
N          2.76310       45.70891        3.96668
C          3.51440       46.96177        3.90232
C          2.60508       48.10342        3.47252
O          2.96721       48.88685        2.60342
C          4.76796       46.82436        3.00182
C          5.43361       45.46465        3.19473
O          5.94432       45.26428        4.47634
O          6.47937       45.25343        2.29933
H          2.64684       45.29222        4.90313
H          3.84970       47.17876        4.94091
H          5.47200       47.67042        3.16145
H          4.45206       46.85222        1.93834
N          1.35456       48.20343        4.00983
C          0.38162       49.19105        3.55129
C          0.72976       50.59712        4.04371
O          1.47472       50.70476        5.00761
C         -1.09624       48.78606        3.88545
C         -1.52689       48.84171        5.37893
C         -1.43956       47.43194        3.23916
C         -0.84220       47.87880        6.34905
H          1.06689       47.46348        4.65735
H          0.46965       49.17456        2.44363
H         -1.76668       49.51948        3.39565
H         -2.61575       48.61451        5.41281
H         -1.39741       49.87553        5.76405
H         -0.83040       46.60390        3.65380
H         -2.51324       47.19219        3.38770
H         -1.25510       47.48256        2.14598
H         -1.32904       47.95973        7.34328
H         -0.94111       46.82753        6.00589
H          0.22180       48.14770        6.49566
N          0.28335       51.74154        3.43537
C         -0.52694       51.77256        2.22095
C          0.25482       52.25723        1.01821
O         -0.22527       52.02536       -0.07898
C         -1.84288       52.55770        2.42640
C         -1.69354       54.03475        2.70409
O         -0.59896       54.57364        2.74476
O         -2.79935       54.77837        2.89757
H          0.58990       52.64180        3.83482
H         -0.82702       50.75478        1.93646
H         -2.39718       52.09722        3.27233
H         -2.46789       52.45277        1.51249
N          1.47485       52.86691        1.10770
C          2.21942       53.25222       -0.07862
C          1.50890       54.33567       -0.85938
O          1.44152       55.46264       -0.39000
H          1.91178       53.03588        2.02424
H          2.36707       52.34509       -0.70369
H          3.22777       53.62881        0.19929
N          0.93657       54.04682       -2.06162
C          0.28192       55.03098       -2.91906
C         -1.24138       54.90874       -2.88530
O         -1.89782       55.61376       -3.63779
C          0.89465       54.94843       -4.34129
C          0.82071       53.58810       -4.99006
O         -0.36253       53.04208       -5.31267
O          1.84746       52.98496       -5.26015
H          0.94417       53.06539       -2.37932
H          0.48364       56.06368       -2.55890
H          1.96862       55.22473       -4.25383
H          0.41297       55.69235       -5.01125
N         -1.87887       54.11471       -1.97240
C         -3.32458       54.02605       -1.82140
C         -4.02925       53.34368       -2.97579
O         -5.24904       53.27851       -2.94353
H         -1.32426       53.59953       -1.29153
H         -3.73166       55.05147       -1.68279
H         -3.55833       53.44293       -0.90345
N         -3.33761       52.82219       -4.02996
C         -3.92924       52.25900       -5.23845
C         -4.60744       50.91058       -5.03602
O         -5.10595       50.38100       -6.01967
C         -4.84826       53.28584       -5.94373
C         -4.10073       54.60185       -6.23425
C         -4.92409       55.61245       -6.99231
N         -4.38352       56.81232       -7.30691
O         -6.07277       55.36112       -7.32717
H         -2.31663       52.86628       -4.01529
H         -3.09611       52.04645       -5.94608
H         -5.74998       53.49833       -5.33211
H         -5.18723       52.85096       -6.90904
H         -3.18894       54.37992       -6.82988
H         -3.79504       55.06944       -5.27648
H         -3.41679       57.04115       -7.03111
H         -4.93014       57.51457       -7.82673
N         -4.60771       50.25351       -3.83724
C         -5.16516       48.90984       -3.66952
C         -4.08926       47.89239       -3.29045
O         -4.44027       46.73318       -3.11375
C         -6.31207       48.91024       -2.61429
C         -5.82891       49.24972       -1.19234
C         -7.44406       49.86156       -3.02558
H         -4.16659       50.69254       -3.01822
H         -5.60612       48.54988       -4.62488
H         -6.74197       47.88360       -2.58007
H         -5.41812       50.27829       -1.13554
H         -6.67634       49.17344       -0.47770
H         -5.04970       48.53160       -0.86026
H         -8.28365       49.79187       -2.30079
H         -7.08880       50.91356       -3.05233
H         -7.83153       49.58670       -4.02940
N         -2.77748       48.24243       -3.11620
C         -1.76408       47.32740       -2.59707
C         -0.61681       47.13402       -3.59398
O         -0.57950       47.80765       -4.61542
C         -1.33891       47.89724       -1.22895
C         -0.29361       47.11873       -0.48850
N          0.85956       47.72480       -0.12671
O         -0.49504       45.95188       -0.18413
H         -2.47802       49.21324       -3.28558
H         -2.20652       46.31965       -2.43447
H         -2.24254       47.94074       -0.58085
H         -0.98353       48.93974       -1.37689
H          1.03729       48.71201       -0.35963
H          1.58308       47.21534        0.38902
N          0.28476       46.12147       -3.40575
C          1.25827       45.70314       -4.42385
C          1.78674       44.29092       -4.14238
O          1.47629       43.73183       -3.09801
C          2.44666       46.69863       -4.56980
C          3.59479       46.37301       -3.62726
C          3.44235       46.43466       -2.23560
C          4.82023       45.92512       -4.15918
C          4.48711       46.03913       -1.39071
C          5.85984       45.53001       -3.31713
C          5.69729       45.57808       -1.93270
O          6.70657       45.16913       -1.13981
H          0.14876       45.53618       -2.57278
H          0.70351       45.66191       -5.38821
H          2.11421       47.75471       -4.48273
H          2.83045       46.57822       -5.60645
H          2.50939       46.76467       -1.81269
H          4.96632       45.85238       -5.22954
H          4.35002       46.07636       -0.31898
H          6.78817       45.16931       -3.74261
H          6.63274       45.16147       -0.17770
N          2.60916       43.65553       -5.02769
C          3.16690       42.33298       -4.75628
C          4.66686       42.29919       -5.03144
O          5.04606       42.58058       -6.15930
C          2.38366       41.25821       -5.53779
C          2.45515       41.36134       -7.06833
C          1.55024       40.34142       -7.69670
O          0.22332       40.38568       -7.46752
O          2.00837       39.47363       -8.42231
H          2.81818       44.11038       -5.92982
H          2.98851       42.08070       -3.70311
H          1.31944       41.34781       -5.22355
H          2.74429       40.25223       -5.22814
H          3.49572       41.18192       -7.40991
H          2.13190       42.36699       -7.40808
N          5.61635       41.97133       -4.10058
C          5.38686       41.64789       -2.69277
C          4.50866       40.42027       -2.52975
O          4.84763       39.36355       -3.04458
C          6.74457       41.41011       -1.98596
C          6.58539       41.13780       -0.48215
C          7.91716       40.97714        0.18982
O          8.27900       41.82193        1.17356
O          8.67138       40.07552       -0.13991
H          6.59641       41.97658       -4.42836
H          4.91023       42.52741       -2.20583
H          7.37113       42.32097       -2.11248
H          7.27309       40.55419       -2.46335
H          5.99349       40.21238       -0.31347
H          6.05025       41.99225       -0.02259
N          3.36768       40.50078       -1.78613
C          2.47434       39.38621       -1.55450
H          1.46477       39.64221       -1.93867
H          2.81835       38.45658       -2.05287
H          2.40431       39.19717       -0.46249
H          3.11443       41.40033       -1.34928
Ca         7.52095       43.80657        3.70167
O         10.14535       42.31798        3.51916
H         10.79194       43.06530        3.46220
H         10.23315       41.98173        4.44614
O          7.51754       40.47332        4.09527
H          6.87219       39.80222        3.75842
H          8.35344       39.96264        4.24042
O          4.63910       42.63496        2.08125
H          4.44508       43.27331        1.34886
H          4.24225       41.78060        1.77685
O          9.46238       45.82476        2.93105
H         10.11515       45.42488        2.30355
H          8.99562       46.51714        2.39924
O          8.53891       44.36977        6.33452
H          8.73575       45.16440        5.77689
H          9.41199       43.91399        6.43286

Ca 1.0



