%chk=apoCaM-CA-Ng.loop3.water5.frame1044.chk
%nprocshared=20
%mem=10GB
%nosave
#b3lyp/svp scf=(tight,noincore,xqc) Test 
#IOP(5/87=12) Density=Current Pop=(MK,readradii) iop(6/33=2) iop(6/42=6)

apoCaM-CA-Ng.loop3.water5.frame1044 

   0  1 
C         50.59700       63.24487       33.41581
C         52.06016       63.20440       33.74110
O         52.40404       62.91549       34.87815
H         50.09819       63.99412       34.06575
H         50.42536       63.53186       32.35660
H         50.14677       62.24658       33.59160
N         52.98267       63.50286       32.78619
C         54.41526       63.53990       33.03293
C         54.90796       64.96949       32.90096
O         55.45475       65.47095       33.87361
C         55.16263       62.48411       32.17673
C         54.79590       62.40618       30.71436
O         55.04569       63.41802       29.87072
O         54.29694       61.38303       30.27340
H         52.65268       63.74788       31.84015
H         54.64441       63.24938       34.08433
H         54.90999       61.49195       32.61374
H         56.26125       62.61682       32.29003
N         54.73114       65.70573       31.76650
C         55.18130       67.08523       31.63962
C         56.33378       67.11651       30.66272
O         56.25059       67.73069       29.60774
C         54.01406       68.01414       31.24423
C         52.84231       67.90461       32.23759
C         51.71616       68.91777       31.97646
C         52.14108       70.36362       32.28992
N         51.01541       71.28560       32.14656
H         54.25732       65.29149       30.95630
H         55.57835       67.47078       32.60508
H         53.64209       67.76672       30.22571
H         54.41587       69.04846       31.23149
H         53.20265       68.03600       33.28105
H         52.41321       66.88221       32.14903
H         50.87287       68.65808       32.65282
H         51.35686       68.83292       30.92726
H         52.95857       70.68742       31.61251
H         52.51351       70.41377       33.33775
H         50.66318       71.27415       31.16220
H         50.24555       71.01820       32.80240
H         51.33543       72.25286       32.38278
N         57.47698       66.46079       31.00225
C         58.66478       66.38355       30.16399
C         59.06279       64.92551       30.01433
O         60.18371       64.55521       30.33974
C         59.77683       67.26999       30.77779
C         60.20545       66.92337       32.18675
O         61.11800       67.69892       32.79941
O         59.74724       65.96106       32.78217
H         57.50406       65.99931       31.92334
H         58.44974       66.78532       29.14989
H         59.39738       68.31445       30.79510
H         60.67343       67.24144       30.12319
N         58.13968       64.01646       29.59730
C         58.39751       62.58896       29.64381
C         59.32176       62.11715       28.55297
O         59.54277       62.85330       27.60156
H         57.19416       64.34428       29.36228
H         57.44657       62.02738       29.52913
H         58.81597       62.36148       30.63918
N         59.90208       60.88235       28.58233
C         59.84247       59.95477       29.71569
C         58.42459       59.48608       30.01453
O         57.76181       59.01976       29.09766
C         60.71225       58.70154       29.46344
C         62.19009       59.01936       29.39620
N         63.04463       58.50859       30.31436
O         62.62434       59.73670       28.50809
H         60.47252       60.61928       27.76450
H         60.27887       60.45789       30.60121
H         60.39168       58.18327       28.53335
H         60.54970       57.99855       30.31114
H         62.70773       57.90050       31.07511
H         64.05115       58.72534       30.26826
N         57.89548       59.48578       31.27779
C         58.62097       59.95245       32.45963
C         57.92304       59.64179       33.76676
O         56.89120       58.98769       33.77359
H         56.94893       59.09271       31.38976
H         58.77112       61.04599       32.39046
H         59.60722       59.44512       32.51650
N         58.46291       60.09338       34.94139
C         57.86758       59.76566       36.23744
C         58.39718       60.65878       37.36721
O         59.40241       61.33355       37.20953
C         58.15780       58.27533       36.54838
C         57.42685       57.73356       37.74819
C         58.13100       57.34831       38.90090
C         56.03165       57.58127       37.71083
C         57.44745       56.82466       40.00189
C         55.35130       57.04747       38.80871
C         56.05804       56.66798       39.95926
O         55.41524       56.14869       41.02439
H         59.29591       60.69638       34.89139
H         56.77762       59.97279       36.15291
H         59.25804       58.17414       36.68344
H         57.88304       57.62779       35.68898
H         59.20746       57.45538       38.94998
H         55.47438       57.86126       36.82537
H         57.99976       56.53443       40.88672
H         54.27668       56.92506       38.76171
H         54.45694       56.01331       41.03075
N         57.68733       60.74890       38.53084
C         58.04757       61.62708       39.64954
C         59.31975       61.20234       40.37228
O         59.89844       60.17194       40.05430
C         56.85046       61.78803       40.65420
C         55.67493       62.59127       40.04457
C         56.34313       60.44231       41.21615
C         56.04937       64.04330       39.71203
H         56.80276       60.23077       38.56792
H         58.28794       62.62427       39.24194
H         57.18405       62.37635       41.53296
H         54.85952       62.64343       40.79849
H         55.27688       62.08895       39.13734
H         55.56678       60.62796       41.98929
H         55.87101       59.80422       40.44273
H         57.17022       59.87581       41.69129
H         55.14952       64.59474       39.37214
H         56.45578       64.55298       40.61307
H         56.79215       64.10864       38.89513
N         59.80987       62.00032       41.37115
C         61.02739       61.74195       42.12902
C         61.97781       62.93652       42.04094
O         61.65172       63.93368       41.41057
C         60.65541       61.43667       43.59199
O         60.00658       62.53349       44.17542
H         59.28910       62.85422       41.62116
H         61.55277       60.84849       41.72556
H         61.56865       61.19000       44.17667
H         59.98132       60.55040       43.60654
H         59.77463       62.25451       45.09952
N         63.18858       62.88471       42.66485
C         64.20837       63.92922       42.64347
C         63.75923       65.23214       43.29334
O         64.05190       66.29344       42.75809
C         64.74209       64.14194       41.21603
H         63.42855       62.02850       43.18660
H         65.05647       63.55995       43.26114
H         65.10569       63.18010       40.79883
H         63.94942       64.54190       40.54867
H         65.58753       64.86269       41.22008
N         63.06765       65.22872       44.47274
C         62.71020       66.43687       45.21620
C         62.09739       67.49013       44.30914
O         62.63794       68.58347       44.19578
C         63.94156       66.96770       45.96339
H         62.77388       64.32393       44.87053
H         61.96723       66.16657       45.99967
H         64.74553       67.26131       45.25667
H         63.66053       67.85012       46.57924
H         64.33179       66.18347       46.64628
N         60.96729       67.20927       43.60995
C         60.37097       68.13763       42.66041
C         59.03482       68.60234       43.19638
O         58.84509       69.80288       43.33577
C         60.27805       67.45919       41.28131
C         59.86788       68.44553       40.17886
C         59.85143       67.76804       38.84129
O         60.97617       67.20778       38.35455
O         58.82383       67.73222       38.18420
H         60.52153       66.28912       43.74737
H         61.01867       69.03477       42.53171
H         59.57218       66.60036       41.31942
H         61.28795       67.06581       41.02547
H         60.60193       69.27987       40.13350
H         58.86444       68.86823       40.40022
N         58.08293       67.70328       43.57487
C         56.82119       68.08580       44.17531
H         55.98530       67.66975       43.57761
H         56.77038       67.67187       45.20507
H         56.69747       69.18735       44.24102
H         58.26864       66.69482       43.47429
Ca        60.01429       66.72284       35.57655
O         60.31807       69.78004       35.70848
H         59.70511       70.13805       36.39880
H         59.91563       70.06063       34.84836
O         59.03538       64.69069       37.53596
H         59.82459       64.18827       37.85964
H         58.59150       64.07793       36.89734
O         61.40193       64.05806       35.26742
H         60.79493       63.77749       34.53710
H         62.27358       64.20952       34.82296
O         62.90813       67.42293       35.45819
H         63.20761       67.38714       34.51532
H         63.33848       68.23492       35.82590
O         57.17853       67.59155       35.45326
H         56.19301       67.68020       35.47376
H         57.38579       67.30189       34.52911

Ca 1.0



