%chk=apoCaM-CA-Ng.loop1.water3.frame1224.chk
%nprocshared=20
%mem=10GB
%nosave
#b3lyp/svp scf=(tight,noincore,xqc) Test 
#IOP(5/87=12) Density=Current Pop=(MK,readradii) iop(6/33=2) iop(6/42=6)

apoCaM-CA-Ng.loop1.water3.frame1224 

   0  1 
C         49.27541       82.89505       22.62952
C         48.34057       81.83401       22.13402
O         48.30351       81.60817       20.93237
H         50.31567       82.63689       22.34254
H         49.00228       83.86774       22.16648
H         49.22047       83.00204       23.73241
N         47.52237       81.16382       22.99814
C         46.54609       80.17645       22.55275
C         45.15996       80.74837       22.76042
O         44.30002       80.11772       23.36122
C         46.75345       78.84166       23.29419
C         48.14389       78.30629       23.10557
O         48.55327       78.02823       21.98992
O         48.94522       78.12824       24.17368
H         47.55003       81.40062       24.00187
H         46.64757       79.99574       21.46271
H         46.02407       78.08783       22.92562
H         46.57523       78.99931       24.38108
N         44.89976       81.99865       22.29397
C         43.61603       82.66349       22.43929
C         42.57298       82.00180       21.55877
O         41.55115       81.60933       22.10364
C         43.73396       84.18682       22.20599
C         44.70770       84.79333       23.23832
C         44.80050       86.31625       23.15164
C         45.83646       86.83216       24.16383
N         45.93693       88.28892       24.12440
H         45.67161       82.51592       21.84883
H         43.28380       82.57232       23.49956
H         42.72994       84.64301       22.35246
H         44.07475       84.42618       21.17814
H         45.72341       84.37233       23.08383
H         44.37084       84.52345       24.26442
H         43.80423       86.75846       23.37229
H         45.11036       86.61379       22.12675
H         46.83128       86.39109       23.92703
H         45.55200       86.51383       25.19217
H         46.20297       88.60566       23.16405
H         45.02379       88.71677       24.40113
H         46.67415       88.59663       24.79938
N         42.72338       81.75769       20.22209
C         43.88925       82.05744       19.38997
C         44.64923       80.76809       19.08847
O         44.24910       79.71154       19.55483
C         43.46350       82.91060       18.16474
C         42.16921       82.48911       17.50861
O         42.03916       81.32000       16.85924
O         41.20370       83.23388       17.57199
H         41.95910       81.23516       19.76493
H         44.63357       82.66899       19.92182
H         44.28232       82.99193       17.41825
H         43.28556       83.93796       18.55459
N         45.82896       80.80065       18.40419
C         46.70690       79.64508       18.25228
C         46.09819       78.48182       17.44979
O         45.72984       78.93703       16.19141
H         46.16735       81.70360       18.03839
H         47.00155       79.27488       19.25591
H         47.63547       79.97610       17.73974
N         47.12073       77.42927       17.32024
C         47.07017       76.55015       16.12284
C         48.49085       76.10846       15.79928
O         49.35684       76.29910       16.64332
C         46.14873       75.33252       16.36594
C         44.73321       75.72857       16.66690
O         44.07765       76.35211       15.84707
O         44.17377       75.37376       17.83939
H         47.23050       76.89367       18.21347
H         46.72914       77.12444       15.24167
H         46.54753       74.74016       17.21873
H         46.12411       74.67185       15.48167
N         48.87626       75.54803       14.61361
C         48.06138       75.28988       13.43472
C         47.53184       76.54487       12.77134
O         48.29026       77.47980       12.56036
H         49.87209       75.28813       14.52766
H         47.25999       74.55636       13.64314
H         48.72251       74.81044       12.68027
N         46.24918       76.57707       12.31083
C         45.67921       77.69246       11.55362
C         45.46549       78.90153       12.44173
O         44.87631       78.76434       13.50260
C         44.34350       77.28009       10.89015
C         44.57517       76.22731        9.79815
O         43.74550       78.40729       10.29778
H         45.67104       75.73379       12.44918
H         46.35970       77.96633       10.71610
H         43.67750       76.86273       11.67645
H         42.76288       78.26554       10.32588
H         45.04944       75.31296       10.20913
H         43.60753       75.94444        9.33380
H         45.23409       76.64262        9.00375
N         45.88202       80.13209       12.01520
C         45.75106       81.39556       12.73955
C         44.28806       81.73117       13.01095
O         43.64853       81.04801       13.79496
C         46.60872       81.39558       14.03765
C         48.07343       80.99636       13.71475
C         46.54369       82.76303       14.74710
C         48.93832       80.75670       14.95141
H         46.33444       80.19115       11.09017
H         46.17120       82.18780       12.07989
H         46.18739       80.64423       14.71623
H         48.54392       81.76724       13.06748
H         48.07912       80.03585       13.16104
H         47.09986       82.74518       15.70559
H         46.96861       83.55806       14.09821
H         45.49599       83.03022       14.99786
H         48.49421       79.94941       15.56968
H         49.94933       80.42750       14.63107
H         49.05570       81.67533       15.55862
N         43.70026       82.79786       12.39955
C         42.32788       83.21712       12.67501
C         41.41321       83.06480       11.47423
O         40.24218       83.38248       11.63262
C         42.29977       84.67375       13.20868
C         42.85751       85.70085       12.21461
O         43.02886       84.75846       14.40514
H         44.25036       83.33682       11.71652
H         41.87799       82.57778       13.46619
H         41.23946       84.96770       13.40275
H         42.42222       84.45925       15.13261
H         42.75395       86.72230       12.63703
H         43.93470       85.52665       12.01668
H         42.30106       85.66381       11.25422
N         41.83221       82.59240       10.25982
C         40.91000       82.43885        9.13353
C         39.87548       81.38437        9.51047
O         40.20530       80.20737        9.47895
C         41.68692       82.06612        7.84243
C         40.77629       82.01449        6.61318
O         42.69012       83.02516        7.61905
H         42.82411       82.34441       10.12726
H         40.42032       83.42466        8.96742
H         42.15913       81.06554        7.99672
H         43.39579       82.58662        7.07404
H         41.37581       81.74087        5.71818
H         39.97557       81.25781        6.74185
H         40.31633       83.01038        6.43773
N         38.66345       81.75885       10.02929
C         37.72029       80.85453       10.69206
C         38.34853       80.17990       11.90263
O         39.41490       79.59521       11.79686
C         37.05812       79.84247        9.74170
C         36.08444       80.56901        8.79933
C         35.18582       79.59746        8.02820
C         34.10733       80.37593        7.25877
N         33.19852       79.47184        6.55741
H         38.42916       82.76278       10.04788
H         36.88537       81.46840       11.09835
H         36.44586       79.15954       10.37341
H         37.79906       79.22680        9.18944
H         36.64085       81.23110        8.10112
H         35.41157       81.20003        9.42266
H         34.67465       78.92338        8.75147
H         35.79730       78.98110        7.33488
H         34.58781       81.06319        6.52831
H         33.51557       80.98867        7.97719
H         32.46674       80.03789        6.06971
H         33.72541       78.91111        5.85001
H         32.72840       78.83341        7.24008
N         37.70606       80.19357       13.10493
C         38.30683       79.62739       14.30247
C         39.44346       80.52818       14.77446
O         40.56308       80.04159       14.81391
C         37.25671       79.32223       15.39212
C         36.27261       78.23780       14.91894
C         35.29242       77.88725       15.99985
O         34.45815       78.82511       16.48745
O         35.23897       76.74746       16.43396
H         36.76123       80.60256       13.16606
H         38.73846       78.63004       14.05220
H         36.68262       80.22024       15.67561
H         37.78652       78.93859       16.29223
H         36.84182       77.32498       14.63272
H         35.70823       78.58921       14.02925
N         39.30405       81.84646       15.10950
C         38.06815       82.59849       15.10394
H         37.36648       82.21121       15.86324
H         38.27686       83.65380       15.38105
H         37.61131       82.59969       14.09522
H         40.15274       82.36812       15.37057
Ca        43.76370       79.99092       16.41560
O         42.29793       77.89476       18.46867
H         41.97118       76.96386       18.39516
H         43.24979       77.83904       18.20512
O         41.80613       77.53098       13.19254
H         41.09751       78.21221       13.10148
H         41.43468       76.73252       12.74071
O         40.77902       77.27746       15.90445
H         40.53002       76.31976       15.88502
H         40.14461       77.68872       16.54351

Ca 1.0



