%chk=apoCaM-CA-Ng.loop1.water1.frame861.chk
%nprocshared=20
%mem=10GB
%nosave
#b3lyp/svp scf=(tight,noincore,xqc) Test 
#IOP(5/87=12) Density=Current Pop=(MK,readradii) iop(6/33=2) iop(6/42=6)

apoCaM-CA-Ng.loop1.water1.frame861 

   0  1 
C         44.00235       44.91328       97.33530
C         42.80721       45.42950       96.59290
O         42.26025       44.71690       95.76265
H         44.87781       45.56197       97.12406
H         43.79381       44.92625       98.42610
H         44.24052       43.87244       97.02950
N         42.32835       46.67357       96.86884
C         41.15070       47.23140       96.20890
C         41.34777       47.43102       94.70866
O         42.45423       47.29382       94.20579
C         40.59650       48.46959       96.96206
C         41.60160       49.43082       97.56213
O         42.49061       50.12836       96.83096
O         41.60618       49.58875       98.77432
H         42.80339       47.20914       97.60943
H         40.34234       46.46671       96.27444
H         40.03319       48.06049       97.83122
H         39.85078       49.00551       96.33695
N         40.24735       47.60456       93.91743
C         40.28236       47.48878       92.45799
C         40.89276       48.68132       91.74949
O         41.37396       48.49925       90.63905
C         38.88280       47.10741       91.91929
C         37.82078       48.21852       92.06706
C         36.41254       47.60682       92.19864
C         35.31272       48.66074       92.40963
N         34.93915       49.32409       91.16119
H         39.33005       47.61702       94.38861
H         40.92432       46.60691       92.23145
H         38.58253       46.21905       92.51911
H         38.91757       46.77827       90.85677
H         37.91282       48.93033       91.21836
H         37.99244       48.78770       93.00341
H         36.43473       46.97910       93.11748
H         36.15468       46.94798       91.34136
H         35.63859       49.40596       93.17019
H         34.40797       48.15143       92.80944
H         34.51278       48.62218       90.51207
H         34.22178       50.05623       91.36882
H         35.76501       49.77156       90.70621
N         40.88773       49.93496       92.29185
C         41.51076       51.06719       91.60353
C         43.07467       51.04974       91.73640
O         43.49739       49.90631       92.42916
C         40.87208       52.42736       92.01819
C         40.91228       52.84270       93.46689
O         40.42299       53.91344       93.78942
O         41.44796       52.06719       94.41824
H         40.40136       50.08913       93.18690
H         41.23672       50.98716       90.53166
H         39.80000       52.40296       91.72576
H         41.34797       53.24505       91.44404
N         43.81109       51.04778       90.44837
C         43.41620       52.05099       89.44660
C         42.71071       51.39784       88.27623
O         42.63996       50.17820       88.20358
H         44.82438       51.18167       90.67615
H         44.30895       52.58564       89.05358
H         42.76555       52.82229       89.89176
N         42.10337       52.18425       87.34581
C         41.27878       51.67677       86.25367
C         41.61025       52.41277       84.96471
O         41.66104       53.63586       84.97760
C         39.80250       51.90904       86.63813
C         38.79135       51.37093       85.65379
O         37.47986       51.51947       85.91684
O         39.13187       50.79271       84.63404
H         42.12749       53.20506       87.49496
H         41.40653       50.57788       86.12299
H         39.62313       52.99622       86.77763
H         39.61471       51.39773       87.60807
N         41.75445       51.73888       83.78848
C         41.97571       52.42397       82.52687
C         43.39715       52.89687       82.43601
O         43.64370       54.09036       82.33412
H         41.62771       50.71578       83.77062
H         41.24312       53.25390       82.41159
H         41.81374       51.71756       81.68387
N         44.39240       51.96920       82.43115
C         45.80850       52.29714       82.30680
C         46.31590       53.09705       83.50182
O         45.57427       53.31712       84.45001
C         46.64615       51.00298       82.10269
C         46.59010       50.04811       83.30931
O         46.18277       50.34037       80.95342
H         44.10770       50.97946       82.46608
H         45.93546       52.92109       81.39304
H         47.70574       51.30053       81.93758
H         46.84852       49.63790       80.73217
H         46.93404       50.55090       84.23264
H         45.56535       49.66746       83.48802
H         47.25203       49.17653       83.12319
N         47.59725       53.56397       83.50386
C         48.18674       54.33996       84.59234
C         48.54419       55.70643       84.05390
O         48.06281       56.69723       84.58672
C         49.43508       53.63188       85.18829
C         49.09960       52.16004       85.52913
C         49.92476       54.41034       86.42805
C         50.24446       51.38829       86.18051
H         48.18381       53.36329       82.68207
H         47.44908       54.46062       85.41887
H         50.25291       53.62308       84.43384
H         48.86821       51.64092       84.57658
H         48.20950       52.10603       86.19316
H         50.15844       55.46402       86.16886
H         49.14836       54.40449       87.22363
H         50.85914       53.97293       86.83230
H         51.15771       51.44259       85.55168
H         50.45991       51.78541       87.19330
H         49.94790       50.32441       86.29413
N         49.31904       55.82131       82.93307
C         49.52733       57.08656       82.24543
C         50.96951       57.21340       81.76725
O         51.75087       56.28180       81.91009
C         48.54002       57.16941       81.04975
C         47.08514       56.94614       81.48726
O         48.62723       58.43041       80.44059
H         49.64801       54.96539       82.46367
H         49.31565       57.93068       82.93978
H         48.81471       56.37001       80.32130
H         48.33381       58.32049       79.49942
H         46.40943       57.04046       80.61311
H         46.94477       55.92545       81.89995
H         46.79002       57.69427       82.25388
N         51.38943       58.37976       81.20570
C         52.75617       58.63769       80.78092
C         53.45681       59.28676       81.94895
O         54.43482       58.73421       82.43404
C         52.75164       59.47783       79.47493
C         54.15857       59.80284       78.97057
O         52.04806       60.68107       79.66082
H         50.73678       59.17534       81.20630
H         53.28281       57.68043       80.55699
H         52.24429       58.85570       78.69754
H         51.47671       60.82163       78.86123
H         54.72952       58.87125       78.77685
H         54.08590       60.37669       78.02117
H         54.70681       60.42333       79.71038
N         52.94394       60.41578       82.51146
C         53.43539       60.98530       83.75314
C         52.31861       60.99130       84.78446
O         51.19897       60.60140       84.47711
C         53.91430       62.42785       83.52605
C         55.05215       62.53843       82.50335
C         55.72061       63.92546       82.56173
C         54.80281       65.12353       82.25397
N         54.37053       65.14503       80.85764
H         52.12046       60.86329       82.08453
H         54.28031       60.38625       84.16015
H         54.29268       62.81740       84.49325
H         53.05727       63.05691       83.20163
H         54.68100       62.30105       81.48326
H         55.83725       61.79485       82.76221
H         56.58727       63.94342       81.86739
H         56.11767       64.05945       83.59206
H         55.37831       66.05265       82.45906
H         53.92044       65.13614       82.92953
H         53.80188       66.00754       80.69485
H         55.20646       65.17442       80.22948
H         53.78480       64.30907       80.63690
N         52.55657       61.46561       86.03764
C         51.51285       61.62808       87.03862
C         50.82450       60.30630       87.36655
O         49.61397       60.25375       87.20085
C         52.07358       62.34816       88.28713
C         50.97738       62.72721       89.28962
C         51.56155       63.50705       90.43265
O         52.49721       62.94926       91.22487
O         51.19334       64.65091       90.64766
H         53.51269       61.77095       86.27379
H         50.75140       62.32001       86.60888
H         52.55790       63.29051       87.94405
H         52.84551       61.73795       88.79620
H         50.48657       61.81452       89.68836
H         50.21047       63.34732       88.77435
N         51.46136       59.18510       87.81792
C         52.88730       59.02907       88.01895
H         53.47606       59.92001       87.75309
H         53.08251       58.78257       89.08279
H         53.25089       58.19381       87.38456
H         50.88377       58.35371       88.01870
Ca        43.00637       49.97131       94.65112
O         45.38439       48.27739       94.07856
H         46.12914       48.77650       94.49827
H         45.80750       47.47299       93.68720

Ca 1.0



