%chk=apoCaM-CA-Ng.loop3.water2.frame537.chk
%nprocshared=20
%mem=10GB
%nosave
#b3lyp/svp scf=(tight,noincore,xqc) Test 
#IOP(5/87=12) Density=Current Pop=(MK,readradii) iop(6/33=2) iop(6/42=6)

apoCaM-CA-Ng.loop3.water2.frame537 

   0  1 
C         78.10164        8.05646       75.09260
C         77.53276        7.46707       76.34495
O         76.81294        6.48287       76.26112
H         79.20958        8.02739       75.14127
H         77.76654        7.48025       74.20301
H         77.76118        9.10736       74.98668
N         77.79034        8.04351       77.55254
C         77.26378        7.51882       78.80252
C         76.18056        8.44645       79.28805
O         76.46127        9.59591       79.60161
C         78.39756        7.36878       79.83719
C         77.96903        6.72216       81.12703
O         78.86781        6.56887       82.11760
O         76.82757        6.31843       81.28396
H         78.34688        8.91215       77.57906
H         76.81789        6.51492       78.63247
H         78.82507        8.37003       80.06144
H         79.20101        6.74420       79.40549
N         74.89022        8.01445       79.31589
C         73.78734        8.87289       79.70972
C         73.87509        9.14426       81.19841
O         73.98044       10.29818       81.58996
C         72.45204        8.22521       79.28697
C         71.28061        9.21662       79.31664
C         70.02860        8.58389       78.69276
C         68.89224        9.60479       78.55616
N         67.72268        8.99876       77.91959
H         74.68207        7.05839       78.98667
H         73.87177        9.82017       79.12919
H         72.23215        7.31446       79.88553
H         72.56927        7.91376       78.22437
H         71.55989       10.10225       78.70305
H         71.07482        9.55303       80.35554
H         69.69754        7.72245       79.31254
H         70.27840        8.21320       77.67347
H         69.23915       10.45943       77.93200
H         68.61150        9.99292       79.55952
H         67.97228        8.64966       76.96514
H         67.36637        8.20652       78.50166
H         66.97050        9.71891       77.82664
N         73.88848        8.10543       82.08674
C         74.04151        8.28853       83.53032
C         75.38321        8.91540       83.92486
O         75.50987        9.32461       85.07081
C         73.78491        6.95918       84.28523
C         74.65289        5.80890       83.83534
O         75.98708        5.85146       83.97731
O         74.13960        4.81674       83.34266
H         73.77831        7.15032       81.71384
H         73.24957        8.99833       83.85793
H         72.72483        6.67342       84.10706
H         73.91035        7.11027       85.37915
N         76.41332        9.05291       83.03808
C         77.65444        9.76210       83.32076
C         78.53781        9.17630       84.40782
O         79.56902        9.78273       84.66416
H         76.30268        8.69738       82.08346
H         77.40242       10.80856       83.59952
H         78.26051        9.79986       82.38903
N         78.21710        8.05049       85.11068
C         79.00626        7.55808       86.23548
C         79.41146        6.09783       86.03497
O         78.96321        5.46667       85.08960
C         78.13597        7.73992       87.50101
C         78.85914        7.50423       88.79892
N         79.90155        8.29017       89.15709
O         78.48745        6.61109       89.54509
H         77.34808        7.55413       84.89902
H         79.93221        8.16330       86.33881
H         77.25167        7.06780       87.42346
H         77.76028        8.78635       87.53288
H         80.21554        9.05982       88.54787
H         80.38911        8.13780       90.05193
N         80.27526        5.50001       86.90310
C         80.66574        4.09859       86.85728
C         81.33360        3.70433       85.56094
O         82.18593        4.43370       85.07408
H         80.68343        6.06395       87.66147
H         79.78161        3.45187       87.05036
H         81.39225        3.91841       87.67800
N         81.03537        2.50339       84.98512
C         81.63977        2.03120       83.74020
C         81.16078        2.85533       82.55384
O         80.39692        3.79145       82.73678
C         81.38605        0.51038       83.57610
C         82.20771       -0.26532       84.58665
C         81.59994       -0.98300       85.62946
C         83.61279       -0.27132       84.48321
C         82.38487       -1.67977       86.55807
C         84.39252       -0.97223       85.40591
C         83.78087       -1.67669       86.45042
O         84.52233       -2.35186       87.35251
H         80.37795        1.87972       85.47909
H         82.74077        2.17912       83.78782
H         81.69073        0.14238       82.57447
H         80.29990        0.30747       83.68633
H         80.52277       -0.99437       85.73246
H         84.10779        0.26411       83.68222
H         81.90820       -2.22200       87.36471
H         85.47149       -0.96527       85.30785
H         85.48972       -2.37178       87.31239
N         81.66718        2.60362       81.31044
C         81.52686        3.47180       80.14270
C         80.09099        3.64492       79.64489
O         79.24463        4.12290       80.38391
C         82.16828        4.87230       80.42187
C         82.22015        5.77728       79.15736
C         83.57119        4.74979       81.05023
C         83.12186        5.27302       78.02426
H         82.30475        1.80116       81.19865
H         82.12561        3.00203       79.33441
H         81.53601        5.40435       81.16595
H         82.58376        6.78379       79.45848
H         81.20000        5.90789       78.74702
H         84.26273        4.18496       80.39283
H         83.99174        5.75923       81.24507
H         83.52507        4.22437       82.02640
H         84.17676        5.19352       78.35664
H         82.78202        4.29253       77.63668
H         83.08862        5.99729       77.18381
N         79.79816        3.42139       78.33042
C         78.57131        3.91563       77.70202
C         77.28410        3.22431       78.12951
O         76.22627        3.72838       77.77483
C         78.70900        3.86158       76.17127
O         79.80266        4.64924       75.77295
H         80.54435        3.04971       77.72288
H         78.47633        4.98500       77.97829
H         77.79862        4.25388       75.67367
H         78.83526        2.79879       75.85726
H         80.31558        4.12979       75.10149
N         77.26864        2.06581       78.84361
C         76.01986        1.40227       79.21468
C         75.26330        2.21930       80.25265
O         75.87111        2.53504       81.26388
C         76.30675        0.00418       79.77036
H         78.16450        1.61761       79.08645
H         75.42440        1.24546       78.30617
H         76.92561        0.05136       80.68523
H         75.35482       -0.51380       80.01247
H         76.84408       -0.59822       79.00701
N         73.94977        2.59371       80.14909
C         73.02325        2.26329       79.06515
C         72.88679        0.75210       78.92906
O         72.59150        0.11645       79.93187
C         71.63968        2.86192       79.38235
H         73.57211        3.14069       80.94049
H         73.38135        2.73639       78.13198
H         71.71390        3.96652       79.47457
H         70.90326        2.63066       78.58685
H         71.24570        2.45503       80.33935
N         73.11495        0.06579       77.76679
C         73.38872        0.66548       76.46061
C         73.96928       -0.38317       75.52864
O         75.08707       -0.20242       75.06379
C         72.10175        1.29244       75.87746
C         72.35137        2.03381       74.55653
C         71.08647        2.66975       74.05367
O         71.01490        4.00691       73.90888
O         70.11995        1.97991       73.76979
H         73.08754       -0.96461       77.82918
H         74.16020        1.45503       76.55775
H         71.69676        2.03002       76.59301
H         71.33096        0.50388       75.73283
H         72.73295        1.33475       73.78265
H         73.11244        2.82661       74.72628
N         73.28085       -1.51802       75.22707
C         73.83847       -2.54291       74.37210
H         74.78256       -2.92969       74.81339
H         73.12291       -3.38606       74.27355
H         74.04553       -2.12613       73.36384
H         72.34276       -1.67052       75.62638
Ca        77.25242        4.12352       83.25467
O         78.39424        1.52080       82.28367
H         78.93992        1.02839       81.62022
H         77.88135        0.82022       82.75911
O         76.85936        1.84857       85.23608
H         76.22692        2.56371       85.49939
H         77.75387        2.21996       85.44251

Ca 1.0



