%chk=apoCaM-CA-Ng.loop2.water4.frame672.chk
%nprocshared=20
%mem=10GB
%nosave
#b3lyp/svp scf=(tight,noincore,xqc) Test 
#IOP(5/87=12) Density=Current Pop=(MK,readradii) iop(6/33=2) iop(6/42=6)

apoCaM-CA-Ng.loop2.water4.frame672 

   -2  1 
C        -18.35869       49.64108       79.52191
C        -19.79476       49.26433       79.29486
O        -20.14819       48.88229       78.18837
H        -17.76218       49.51511       78.59307
H        -18.29981       50.70549       79.83576
H        -17.92214       49.00428       80.31911
N        -20.69263       49.37660       80.31213
C        -22.11523       49.09255       80.15579
C        -22.35365       47.61987       79.85651
O        -21.99136       46.77730       80.66560
C        -22.87786       49.49700       81.43803
C        -24.37871       49.36327       81.33591
O        -24.91854       48.98021       80.30932
O        -25.14007       49.68668       82.39745
H        -20.34958       49.72533       81.22147
H        -22.50195       49.73005       79.32886
H        -22.65580       50.56247       81.66385
H        -22.51937       48.87956       82.29039
N        -23.00288       47.24882       78.71683
C        -23.33433       45.86240       78.39121
C        -22.08374       45.03313       78.22666
O        -21.09783       45.57896       77.74807
C        -24.10115       45.82019       77.06083
H        -23.29554       47.99258       78.06344
H        -23.98513       45.44442       79.18743
H        -25.03007       46.42339       77.13248
H        -23.47456       46.23575       76.23938
H        -24.37648       44.77798       76.79574
N        -22.03054       43.68852       78.45312
C        -23.09495       42.81393       78.97667
C        -23.32882       42.98357       80.48457
O        -22.65252       43.78421       81.11321
C        -22.68478       41.33348       78.69296
C        -21.37182       40.93637       79.34336
O        -20.90318       39.82471       79.16082
O        -20.71065       41.84043       80.09575
H        -21.14635       43.24468       78.15981
H        -24.04063       43.00590       78.42660
H        -22.57856       41.21212       77.59331
H        -23.48162       40.63402       79.02070
N        -24.22046       42.17591       81.14359
C        -24.30949       42.10381       82.59894
C        -24.82675       43.36677       83.24904
O        -25.24778       44.26988       82.54059
H        -24.78560       41.50294       80.60578
H        -23.29226       41.87855       82.98443
H        -24.98236       41.26797       82.89301
N        -24.79900       43.55076       84.60487
C        -24.24616       42.60406       85.57983
C        -22.82952       43.08372       85.94243
O        -22.44281       44.14750       85.47517
C        -25.23330       42.54964       86.78554
C        -25.07657       41.45430       87.81987
N        -25.86417       41.46451       88.92240
O        -24.28365       40.54121       87.66506
H        -25.09993       44.47223       84.96215
H        -24.16804       41.59458       85.12674
H        -26.26461       42.41905       86.38898
H        -25.19370       43.53524       87.29856
H        -26.55485       42.21544       89.07047
H        -25.78165       40.72450       89.63605
N        -21.97917       42.35358       86.72348
C        -20.62230       42.77948       87.05435
C        -19.55003       41.77088       86.65652
O        -18.39511       42.01443       86.97548
H        -22.28441       41.45942       87.11457
H        -20.57052       42.90812       88.15661
H        -20.37286       43.75809       86.59192
N        -19.84215       40.60889       86.00090
C        -18.84937       39.56707       85.72577
C        -17.77119       40.03843       84.74873
O        -18.08957       40.41278       83.63129
C        -19.55761       38.28871       85.20556
C        -18.57293       37.16199       84.87990
O        -20.44657       37.81399       86.18778
H        -20.81974       40.42559       85.73700
H        -18.37258       39.28272       86.69046
H        -20.10871       38.51681       84.26798
H        -21.34042       38.20312       86.00223
H        -19.13284       36.26822       84.53146
H        -17.87748       37.46375       84.06939
H        -17.98391       36.88885       85.78068
N        -16.45857       40.01617       85.12453
C        -15.33043       40.39098       84.26442
C        -15.09127       39.34437       83.17716
O        -14.84199       38.19448       83.51195
C        -14.03578       40.55665       85.13034
C        -12.77741       40.78430       84.24233
C        -14.22861       41.71633       86.13271
C        -11.47699       40.94462       85.03082
H        -16.25201       39.72267       86.09112
H        -15.53353       41.37825       83.80029
H        -13.87180       39.61847       85.70691
H        -12.91689       41.66792       83.59182
H        -12.63164       39.90363       83.58171
H        -13.36883       41.79770       86.82599
H        -14.34636       42.67841       85.59553
H        -15.12308       41.56413       86.76968
H        -10.62659       41.02798       84.32175
H        -11.48765       41.86793       85.64414
H        -11.31096       40.06245       85.68480
N        -15.08122       39.69838       81.85484
C        -14.73462       38.78394       80.76456
C        -13.58127       39.31082       79.89555
O        -13.26348       38.64533       78.91818
C        -15.95687       38.56120       79.85013
C        -17.13510       37.97769       80.57609
O        -17.74164       38.67302       81.55228
O        -17.57016       36.88180       80.26108
H        -15.32829       40.66369       81.60230
H        -14.43012       37.79105       81.16383
H        -15.66930       37.85670       79.03712
H        -16.25770       39.51972       79.38254
N        -12.90987       40.47485       80.15715
C        -11.90164       41.02766       79.24883
C        -12.06383       42.54227       79.16104
O        -11.14072       43.25788       79.52196
C        -10.48321       40.56798       79.67343
C         -9.38317       41.12900       78.78250
C         -8.30978       41.84065       79.35204
C         -9.41588       40.95955       77.38339
C         -7.29933       42.37224       78.54290
C         -8.40950       41.50512       76.57823
C         -7.35199       42.20940       77.15716
H        -13.12068       41.00658       81.01399
H        -12.05064       40.62711       78.22541
H        -10.44833       39.45881       79.61213
H        -10.30143       40.85406       80.73266
H         -8.25026       41.98298       80.42351
H        -10.22239       40.41966       76.90690
H         -6.47571       42.91433       78.99003
H         -8.44976       41.38326       75.50308
H         -6.57315       42.62836       76.53201
N        -13.20376       43.12318       78.67071
C        -13.39131       44.56224       78.52078
C        -13.35441       45.37995       79.80302
O        -13.45608       46.59497       79.70499
C        -14.80356       44.68137       77.93412
C        -14.92147       43.41076       77.12951
C        -14.30139       42.38797       78.07761
H        -12.61529       44.92066       77.80613
H        -15.55225       44.59116       78.75710
H        -14.99773       45.62744       77.38479
H        -15.94752       43.16253       76.78694
H        -14.25963       43.51829       76.23983
H        -14.99847       42.08527       78.88750
H        -13.98704       41.50961       77.47730
N        -13.26050       44.80151       81.03571
C        -13.29905       45.57405       82.26817
C        -11.89542       45.98871       82.70055
O        -11.78726       46.72030       83.67628
C        -13.96869       44.77012       83.40925
C        -15.49669       44.54312       83.34592
C        -16.08888       43.61297       82.31745
O        -17.38906       43.28681       82.46185
O        -15.43398       43.11711       81.41995
H        -13.15727       43.78278       81.11847
H        -13.88104       46.51018       82.11652
H        -13.82659       45.35732       84.34316
H        -13.43970       43.80961       83.55186
H        -16.01425       45.52289       83.27477
H        -15.76918       44.09492       84.32520
N        -10.77395       45.57680       82.04414
C         -9.44827       45.97564       82.46290
H         -8.68649       45.51107       81.80079
H         -9.34798       47.07989       82.40134
H         -9.26255       45.64129       83.50578
H        -10.84236       44.95731       81.22964
Ca       -18.73356       41.98586       81.17844
O        -20.72482       39.50467       82.05591
H        -20.50854       38.57172       81.80351
H        -21.71224       39.55277       82.00700
O        -20.61774       42.70004       83.43059
H        -19.95987       42.95121       84.12488
H        -20.74710       43.53219       82.91192
O        -19.29580       44.79953       80.42693
H        -20.23963       44.67691       80.69583
H        -19.09149       45.73793       80.66448
O        -17.57238       41.53826       78.44013
H        -18.07003       40.74273       78.12486
H        -18.08845       42.31031       78.09873

Ca 1.0



