%chk=apoCaM-CA-Ng.loop2.water4.frame1005.chk
%nprocshared=20
%mem=10GB
%nosave
#b3lyp/svp scf=(tight,noincore,xqc) Test 
#IOP(5/87=12) Density=Current Pop=(MK,readradii) iop(6/33=2) iop(6/42=6)

apoCaM-CA-Ng.loop2.water4.frame1005 

   -2  1 
C         39.02216       36.33417       35.81681
C         38.12868       35.13288       35.65251
O         37.88572       34.77814       34.50816
H         39.98585       36.12263       35.30581
H         38.54929       37.21169       35.33032
H         39.26890       36.60480       36.85490
N         37.60952       34.40042       36.68128
C         37.74865       34.65695       38.11438
C         36.36255       34.68208       38.78064
O         35.35569       34.61373       38.08863
C         38.73205       33.62343       38.72067
C         38.32772       32.21474       38.43251
O         39.07696       31.45005       37.84665
O         37.08743       31.83420       38.74453
H         37.07342       33.55614       36.42077
H         38.19163       35.64385       38.32980
H         38.81315       33.76611       39.81678
H         39.74555       33.79737       38.29624
N         36.24748       34.80901       40.13497
C         34.99682       34.99080       40.86873
C         33.95887       33.88421       40.66218
O         32.81991       34.19789       40.34535
C         34.42224       36.38649       40.57482
H         37.10706       34.83079       40.70157
H         35.24767       34.98733       41.95367
H         34.12818       36.48327       39.50912
H         33.53110       36.57790       41.21154
H         35.18093       37.16357       40.80899
N         34.25865       32.57716       40.92183
C         33.24163       31.50930       40.97779
C         33.83467       30.19500       41.47675
O         35.04759       30.02780       41.47760
C         32.47933       31.29531       39.63888
C         33.40462       30.85948       38.54890
O         33.67394       31.62259       37.63439
O         34.00921       29.65950       38.61232
H         35.23209       32.36887       41.18913
H         32.50277       31.82939       41.74536
H         31.98153       32.23668       39.33552
H         31.67463       30.53787       39.75202
N         33.01611       29.22438       41.97113
C         33.53589       28.01215       42.58001
C         33.79353       26.88911       41.60022
O         34.28729       25.86411       42.04859
H         32.00544       29.41573       42.04708
H         32.79117       27.62916       43.31089
H         34.45431       28.24890       43.16130
N         33.42321       26.95567       40.28511
C         33.53562       25.81627       39.37482
C         34.32207       26.22676       38.12379
O         35.21400       27.05356       38.24862
C         32.08383       25.32847       39.12150
C         31.96139       23.93419       38.56195
N         32.45262       22.87505       39.24678
O         31.37854       23.75323       37.50298
H         32.95196       27.80125       39.93416
H         34.09929       24.99909       39.86995
H         31.54810       26.07285       38.49272
H         31.55630       25.28759       40.09975
H         32.91876       23.00440       40.15669
H         32.35186       21.91921       38.87591
N         34.05602       25.71145       36.88647
C         34.69701       26.16396       35.66339
C         34.42228       27.63270       35.41543
O         35.37954       28.38687       35.33635
H         33.35201       24.97906       36.77218
H         34.30920       25.57910       34.80228
H         35.79267       25.98148       35.73048
N         33.16623       28.15946       35.31416
C         31.92432       27.39625       35.38814
C         31.67949       26.64739       34.08842
O         31.51704       25.43633       34.12137
C         30.73854       28.33213       35.72986
C         29.43260       27.54763       35.90590
O         31.00533       28.99520       36.94150
H         33.09667       29.18526       35.21746
H         31.96093       26.69615       36.23917
H         30.58889       29.07442       34.91277
H         31.29405       29.91877       36.72094
H         29.53676       26.80411       36.72588
H         28.60802       28.24436       36.16477
H         29.15727       27.01055       34.97511
N         31.60396       27.33023       32.90732
C         31.26494       26.73983       31.61307
C         29.83853       26.17331       31.66272
O         29.67238       24.97424       31.48913
C         32.34535       25.69828       31.15958
C         33.79665       26.23002       31.31389
C         32.10433       25.22733       29.70759
C         34.12113       27.48884       30.50503
H         31.77349       28.34741       32.92400
H         31.27402       27.54531       30.85066
H         32.28032       24.80228       31.81397
H         34.50536       25.42689       31.01424
H         33.99421       26.44966       32.38421
H         32.87354       24.48156       29.41465
H         31.11855       24.73938       29.58411
H         32.14144       26.07816       28.99686
H         35.17718       27.77620       30.69188
H         34.00575       27.30986       29.41728
H         33.47580       28.33662       30.81304
N         28.73534       26.93634       31.93725
C         28.74664       28.36940       32.21267
C         29.15463       29.23259       31.02118
O         30.18616       29.88371       31.10969
C         27.41866       28.86041       32.86531
C         26.09057       28.55947       32.20332
O         24.96762       29.05014       32.76048
O         25.99336       27.83747       31.22602
H         27.83839       26.43449       32.01549
H         29.48766       28.55648       33.00572
H         27.50110       29.96117       33.00232
H         27.34584       28.40842       33.87691
N         28.36064       29.36125       29.92293
C         28.56009       30.34907       28.86990
C         27.36975       31.31033       28.92935
O         26.25320       30.82149       28.80514
C         28.59688       29.63716       27.50105
C         28.78603       30.60632       26.35699
C         27.73923       30.84304       25.44809
C         30.00857       31.27834       26.18421
C         27.91082       31.74154       24.39094
C         30.17945       32.16789       25.11778
C         29.13067       32.40129       24.22388
H         27.51443       28.79244       29.85156
H         29.51791       30.88851       29.00379
H         27.63854       29.08587       27.37394
H         29.41225       28.88198       27.47205
H         26.78623       30.34177       25.56274
H         30.83100       31.10547       26.86697
H         27.09762       31.92535       23.70035
H         31.12534       32.67636       24.98301
H         29.26275       33.09233       23.40111
N         27.47854       32.66909       29.10036
C         28.71116       33.44335       29.18578
C         29.59408       33.11241       30.36688
O         29.19660       32.34208       31.22701
C         28.22079       34.89065       29.34333
C         26.91719       34.86795       28.58102
C         26.32465       33.54378       29.04401
H         29.25569       33.29263       28.22775
H         27.94466       35.07374       30.40987
H         28.95169       35.66754       29.03460
H         26.25659       35.74587       28.74399
H         27.15910       34.78812       27.49689
H         25.89166       33.62069       30.06656
H         25.55006       33.21538       28.31701
N         30.83027       33.67810       30.45560
C         31.76738       33.39498       31.53613
C         33.17141       33.87809       31.16368
O         33.73850       34.69905       31.86996
C         31.24590       33.98075       32.87763
C         30.96014       35.49465       32.82772
C         30.43736       35.97941       34.14915
O         31.19348       35.86788       35.25841
O         29.32944       36.48647       34.22299
H         31.12885       34.30632       29.69312
H         31.86113       32.29389       31.66152
H         31.98446       33.75772       33.67921
H         30.30125       33.46676       33.15382
H         30.20774       35.70339       32.03624
H         31.87659       36.07050       32.59179
N         33.83992       33.39018       30.07734
C         33.31417       32.37812       29.18235
H         32.40725       32.73908       28.65922
H         34.06980       32.13713       28.40503
H         33.08227       31.44948       29.74460
H         34.79100       33.74280       29.88678
Ca        36.17963       29.87041       38.25873
O         38.62529       29.96422       41.21716
H         39.55382       29.92514       40.87535
H         38.67529       29.55473       42.11743
O         38.10125       28.74315       36.16189
H         39.08267       28.75387       36.03745
H         37.80837       29.65431       35.90738
O         39.20717       27.75496       38.82773
H         39.29310       26.76947       38.87068
H         40.06481       28.06326       38.44098
O         36.93972       27.21104       40.82402
H         37.79289       27.15990       41.32325
H         36.70500       26.26685       40.64041

Ca 1.0



