%chk=apoCaM-CA-Ng.loop2.water4.frame1121.chk
%nprocshared=20
%mem=10GB
%nosave
#b3lyp/svp scf=(tight,noincore,xqc) Test 
#IOP(5/87=12) Density=Current Pop=(MK,readradii) iop(6/33=2) iop(6/42=6)

apoCaM-CA-Ng.loop2.water4.frame1121 

   -2  1 
C         81.96425       74.47257       42.35482
C         82.64550       75.18048       43.49223
O         82.59068       74.66890       44.60150
H         81.16343       75.12167       41.94559
H         82.66946       74.19639       41.55304
H         81.49662       73.53246       42.71908
N         83.28157       76.37905       43.35382
C         83.50181       77.09210       42.09129
C         83.79541       78.57607       42.35049
O         83.65331       79.02524       43.48014
C         84.64021       76.41014       41.28908
C         85.94425       76.39977       42.02728
O         87.01699       77.02158       41.51198
O         86.05081       75.79829       43.08389
H         83.65907       76.79144       44.21981
H         82.57580       77.07408       41.47735
H         84.77593       76.91588       40.31216
H         84.38739       75.36425       41.04612
N         84.20756       79.40636       41.34240
C         84.45405       80.83877       41.50134
C         85.52528       81.19410       42.54016
O         85.70929       82.38255       42.76650
C         83.12789       81.55370       41.81167
H         84.33583       79.02547       40.39533
H         84.79900       81.24537       40.52410
H         82.38649       81.32736       41.01480
H         82.70640       81.24120       42.78824
H         83.27512       82.65487       41.83068
N         86.26405       80.25528       43.21293
C         87.19498       80.59286       44.29156
C         88.62777       80.17810       43.97419
O         88.88095       79.59488       42.93078
C         86.68780       79.97554       45.61522
C         86.58060       78.47540       45.58061
O         87.56990       77.78816       45.39081
O         85.39024       77.88232       45.78745
H         86.15348       79.25868       42.98887
H         87.22129       81.69343       44.44479
H         85.68162       80.39745       45.83286
H         87.35549       80.26314       46.45375
N         89.63115       80.52426       44.83311
C         91.04598       80.27377       44.59963
C         91.45185       78.83813       44.85970
O         91.00281       77.94778       44.15616
H         89.38911       81.08469       45.66403
H         91.61741       80.91932       45.29976
H         91.32883       80.58866       43.57245
N         92.32556       78.55112       45.87169
C         92.79958       77.20739       46.19394
C         92.25611       76.78061       47.54752
O         91.55568       77.54882       48.19403
C         94.35099       77.18579       46.21427
C         95.00931       77.50124       44.89136
N         96.36075       77.51651       44.80506
O         94.33923       77.73427       43.89624
H         92.66430       79.32236       46.46765
H         92.43305       76.46555       45.45052
H         94.71052       76.17937       46.51557
H         94.71199       77.91760       46.97062
H         96.94327       77.31972       45.63286
H         96.82905       77.72405       43.91043
N         92.52501       75.53391       48.02823
C         92.02265       75.03802       49.29921
C         92.59121       75.78474       50.48995
O         93.35391       76.72240       50.30146
H         93.08817       74.88635       47.45641
H         92.33166       73.97466       49.39682
H         90.91329       75.08910       49.30448
N         92.32415       75.41012       51.77453
C         91.47655       74.28672       52.16653
C         90.46734       74.76271       53.20030
O         90.88232       75.34234       54.19513
C         92.37481       73.16094       52.72332
C         91.55908       71.91097       53.07461
O         93.32148       72.81870       51.74199
H         92.80577       75.92537       52.52949
H         90.93939       73.85956       51.29488
H         92.89787       73.53799       53.63385
H         94.09224       72.40376       52.20983
H         91.02991       71.53219       52.17304
H         92.23626       71.11304       53.44555
H         90.81303       72.13280       53.86535
N         89.12903       74.52592       53.04761
C         88.12018       74.99906       53.99991
C         87.54104       73.81932       54.77862
O         87.28556       72.79634       54.15912
C         87.01644       75.84886       53.30210
C         86.06947       75.00457       52.40464
C         87.66836       77.01023       52.52939
C         84.93708       75.80842       51.76135
H         88.81632       73.97364       52.23567
H         88.61610       75.68270       54.70925
H         86.39863       76.29075       54.11231
H         85.57754       74.23256       53.03312
H         86.64011       74.49522       51.60136
H         88.33411       77.59260       53.20122
H         88.26764       76.62733       51.67580
H         86.90421       77.71333       52.14262
H         84.26690       75.11871       51.20668
H         84.33371       76.32815       52.53116
H         85.33009       76.55070       51.03877
N         87.35098       73.81806       56.13461
C         87.53104       74.95697       57.03365
C         86.33899       75.13111       57.97201
O         85.41483       74.32687       57.94942
C         88.85420       74.77594       57.81329
C         88.91026       73.50147       58.61414
O         88.03128       73.27951       59.60964
O         89.76778       72.66673       58.37271
H         87.06519       72.92349       56.56589
H         87.59857       75.90830       56.47658
H         89.02672       75.63298       58.49619
H         89.68716       74.77485       57.07572
N         86.33662       76.16145       58.86598
C         85.34918       76.34587       59.92358
C         84.82082       77.78624       59.92624
O         85.64542       78.68834       59.82724
C         86.06760       76.08272       61.25865
C         85.11105       76.07371       62.42085
C         84.95681       77.21476       63.22263
C         84.35868       74.92055       62.70734
C         84.05974       77.20452       64.29383
C         83.47170       74.91067       63.78778
C         83.32104       76.05267       64.57916
H         87.13796       76.81141       58.85684
H         84.53948       75.59580       59.84196
H         86.85729       76.85214       61.40500
H         86.58810       75.09997       61.23304
H         85.51988       78.11431       63.00811
H         84.46505       74.02987       62.09954
H         83.93812       78.09034       64.90273
H         82.90070       74.01848       64.01099
H         82.63157       76.04549       65.41303
N         83.50687       78.12085       60.13366
C         82.42796       77.18543       60.38366
C         82.09341       76.40928       59.12660
O         82.15733       75.18782       59.18972
C         81.32591       78.06309       61.00029
C         81.53627       79.41737       60.35920
C         83.06147       79.49801       60.27093
H         82.69338       76.45649       61.17658
H         80.29609       77.64803       60.97862
H         81.59958       78.21514       62.07195
H         81.10228       79.38541       59.34768
H         81.06042       80.27677       60.87845
H         83.35484       80.14162       59.41361
H         83.49515       79.90063       61.21285
N         81.75531       77.01257       57.94948
C         81.52277       76.25692       56.73236
C         80.03211       76.25469       56.43878
O         79.50892       77.32812       56.17187
C         82.30393       76.82494       55.51938
C         83.83244       76.90154       55.69931
C         84.34270       78.11050       56.44208
O         85.54459       78.24355       56.60638
O         83.51669       79.09464       56.84301
H         81.64081       78.02723       57.90019
H         81.91217       75.23845       56.86108
H         81.92240       77.81826       55.19619
H         82.11006       76.11315       54.68603
H         84.28194       76.98169       54.69304
H         84.19733       75.96352       56.16609
N         79.23890       75.14014       56.46739
C         79.63334       73.78766       56.82387
H         80.68219       73.66355       57.12870
H         79.01667       73.44901       57.68248
H         79.44676       73.11232       55.96420
H         78.24195       75.26155       56.23160
Ca        88.93581       76.78416       42.65251
O         90.47898       78.03131       40.47868
H         91.38211       78.26180       40.81258
H         90.63748       77.60075       39.60151
O         91.22557       74.99910       42.50230
H         91.68506       74.42344       43.16328
H         91.93401       75.26965       41.86596
O         88.55328       74.76867       40.39825
H         88.71151       75.49325       39.74196
H         89.37327       74.21583       40.36164
O         88.59449       74.83218       44.97306
H         88.91163       75.52059       45.60974
H         89.13042       74.02953       45.19191

Ca 1.0



