%chk=apoCaM-CA-Ng.loop2.water4.frame612.chk
%nprocshared=20
%mem=10GB
%nosave
#b3lyp/svp scf=(tight,noincore,xqc) Test 
#IOP(5/87=12) Density=Current Pop=(MK,readradii) iop(6/33=2) iop(6/42=6)

apoCaM-CA-Ng.loop2.water4.frame612 

   -2  1 
C         65.91064       33.30605       70.23394
C         66.18259       34.77107       70.04807
O         65.89945       35.29240       68.97903
H         64.82679       33.10839       70.09834
H         66.48428       32.72307       69.48318
H         66.20708       32.96220       71.24754
N         66.74530       35.50330       71.04966
C         67.03743       36.92601       70.92240
C         65.75212       37.71436       70.74206
O         64.88189       37.63572       71.59694
C         67.79790       37.42539       72.16934
C         68.17314       38.87829       72.05614
O         68.89091       39.26048       71.14536
O         67.72224       39.76401       72.96477
H         66.99104       35.02300       71.92972
H         67.70933       37.07108       70.04669
H         68.73211       36.83406       72.28813
H         67.17419       37.27315       73.07753
N         65.58964       38.53464       69.66536
C         64.39361       39.35294       69.46524
C         63.19363       38.48092       69.08748
O         63.41009       37.31502       68.78549
C         64.69198       40.38443       68.36558
H         66.37233       38.61834       68.99768
H         64.20175       39.89392       70.41125
H         64.90951       39.87274       67.40376
H         63.87267       41.09966       68.20063
H         65.58233       40.98197       68.65754
N         61.89434       38.91711       69.05321
C         61.40269       40.23438       69.45505
C         61.66720       40.49773       70.92420
O         61.24607       39.71206       71.75903
C         59.89278       40.39346       69.12275
C         58.96189       39.37259       69.73552
O         58.78168       39.30487       71.06683
O         58.31751       38.63044       69.01181
H         61.19196       38.23232       68.73093
H         61.88720       41.01882       68.84984
H         59.79160       40.32894       68.01664
H         59.55316       41.40874       69.42539
N         62.35792       41.60677       71.31196
C         62.54686       41.97413       72.70559
C         64.00173       41.98787       73.10164
O         64.84991       41.66190       72.28364
H         62.73390       42.24562       70.59433
H         62.02902       41.26753       73.38624
H         62.10951       42.98436       72.84907
N         64.40013       42.34440       74.35626
C         63.50989       42.80239       75.42147
C         63.56178       41.89041       76.64019
O         62.96142       42.24511       77.64478
C         63.91783       44.23644       75.81733
C         63.80842       45.18587       74.64936
N         64.89978       45.83507       74.18154
O         62.72183       45.37178       74.12162
H         65.41146       42.31977       74.56520
H         62.44889       42.83601       75.10049
H         64.95937       44.22294       76.20667
H         63.25484       44.61360       76.62672
H         65.82538       45.69203       74.61085
H         64.82063       46.48166       73.38275
N         64.24238       40.70475       76.64439
C         64.37256       39.87848       77.83604
C         63.07558       39.31082       78.39034
O         63.14238       38.71028       79.45269
H         64.73800       40.38979       75.79849
H         64.84934       40.49740       78.62651
H         65.05109       39.02446       77.62031
N         61.87410       39.43432       77.75258
C         60.61584       38.92925       78.30850
C         60.09280       37.77759       77.47090
O         60.76269       37.37096       76.53374
C         59.60181       40.08838       78.46029
C         60.09091       41.10450       79.49562
O         59.39342       40.73710       77.23303
H         61.83343       39.89104       76.83044
H         60.76946       38.49395       79.32013
H         58.63320       39.71157       78.85982
H         58.69826       40.21920       76.75023
H         59.34389       41.91677       79.61450
H         60.22583       40.60710       80.48093
H         61.05695       41.55309       79.19302
N         58.92209       37.15458       77.80361
C         58.47492       35.91489       77.17689
C         57.24573       36.15372       76.30662
O         56.58105       37.17093       76.42134
C         58.26598       34.83648       78.29962
C         57.65849       33.49798       77.79481
C         59.61306       34.58740       79.01146
C         57.36070       32.48738       78.90612
H         58.34989       37.52897       78.57350
H         59.25767       35.55164       76.47859
H         57.54767       35.25786       79.03818
H         58.33111       33.02475       77.04811
H         56.67483       33.70269       77.32533
H         60.03521       35.53190       79.41201
H         59.49822       33.91244       79.88144
H         60.34617       34.14417       78.30297
H         56.86272       31.59659       78.46749
H         58.28578       32.13632       79.40386
H         56.67859       32.93503       79.66047
N         56.94811       35.21683       75.36200
C         55.85928       35.26376       74.38692
C         55.56536       33.88890       73.74379
O         54.63469       33.85188       72.94710
C         56.20641       36.25227       73.24774
C         56.21871       37.69921       73.64680
O         55.17612       38.25647       73.95179
O         57.36841       38.40090       73.63111
H         57.59693       34.43906       75.33351
H         54.91605       35.55436       74.89982
H         55.46557       36.17594       72.42168
H         57.19363       35.96041       72.83231
N         56.24483       32.72760       74.02380
C         55.91315       31.43692       73.44036
C         57.15040       30.86583       72.73736
O         57.61491       29.80271       73.13412
C         55.43526       30.52961       74.60238
C         54.77475       29.25708       74.14091
C         55.37572       28.00615       74.35983
C         53.51723       29.31696       73.51669
C         54.72952       26.83530       73.94949
C         52.86872       28.14442       73.12213
C         53.47539       26.90427       73.33547
H         57.00868       32.68189       74.70357
H         55.08676       31.53720       72.70476
H         54.68777       31.06919       75.22467
H         56.30401       30.31830       75.26682
H         56.34324       27.93630       74.84133
H         53.03061       30.27139       73.35602
H         55.19785       25.87355       74.11306
H         51.89336       28.19830       72.65604
H         52.97142       25.99722       73.02846
N         57.77556       31.50585       71.69821
C         58.97240       30.99786       71.03685
C         60.15012       30.76559       71.97036
O         61.06020       30.04077       71.59589
C         59.34358       32.11214       70.05119
C         57.99048       32.68931       69.70712
C         57.30725       32.72436       71.07336
H         58.68360       30.05121       70.52668
H         59.88984       32.92017       70.59352
H         59.96792       31.78206       69.19331
H         58.01163       33.66355       69.17444
H         57.46568       31.94102       69.07015
H         57.64438       33.58767       71.68705
H         56.20907       32.74718       70.91716
N         60.23148       31.40795       73.17238
C         61.33508       31.21078       74.09817
C         61.24852       29.80207       74.64598
O         62.18443       29.03507       74.46599
C         61.33588       32.22519       75.27522
C         61.76512       33.67104       74.91909
C         60.74520       34.57046       74.27422
O         61.05759       35.85928       74.05208
O         59.60840       34.20100       74.05839
H         59.47435       32.03967       73.43767
H         62.30312       31.34555       73.56410
H         62.12989       31.86814       75.96942
H         60.38132       32.21911       75.84457
H         62.69098       33.64494       74.30666
H         62.01114       34.17554       75.87936
N         60.13393       29.39615       75.31848
C         59.96396       28.06447       75.86124
H         59.07673       27.58955       75.39232
H         60.84675       27.41646       75.67917
H         59.79773       28.13328       76.95647
H         59.35499       30.05994       75.44761
Ca        59.33114       37.29748       73.81639
O         59.43913       40.71816       73.80497
H         59.43122       41.37457       73.06356
H         58.76115       41.05704       74.43993
O         59.08675       35.99560       70.79451
H         59.76308       35.89099       70.07926
H         59.42249       35.43304       71.53657
O         62.68330       38.39508       74.49320
H         63.44199       38.89478       74.10091
H         63.09912       37.59824       74.90910
O         61.98198       36.58740       71.40310
H         62.38855       37.27986       71.98053
H         62.71056       35.93896       71.23464

Ca 1.0



