%chk=apoCaM-CA-Ng.loop2.water4.frame1129.chk
%nprocshared=20
%mem=10GB
%nosave
#b3lyp/svp scf=(tight,noincore,xqc) Test 
#IOP(5/87=12) Density=Current Pop=(MK,readradii) iop(6/33=2) iop(6/42=6)

apoCaM-CA-Ng.loop2.water4.frame1129 

   -2  1 
C        103.53911       78.58671       57.26038
C        103.10249       79.47528       58.39129
O        102.39732       78.99431       59.26631
H        104.64793       78.52364       57.24548
H        103.13669       77.55951       57.39568
H        103.16906       78.98314       56.29303
N        103.48559       80.77979       58.49541
C        104.32178       81.49160       57.53058
C        103.63015       82.77200       57.07148
O        102.49942       83.01868       57.46964
C        105.72005       81.75407       58.13650
C        105.72334       82.65560       59.33950
O        106.32250       83.71837       59.30267
O        105.11518       82.27777       60.47854
H        103.17163       81.29859       59.33017
H        104.50138       80.87389       56.62689
H        106.37376       82.19578       57.35500
H        106.17966       80.78202       58.41807
N        104.26776       83.64512       56.23389
C        103.69307       84.88472       55.71364
C        103.31921       85.92094       56.77513
O        102.83026       86.96952       56.37607
C        102.48270       84.57249       54.82034
H        105.21978       83.41611       55.91450
H        104.45573       85.36171       55.05703
H        102.77804       83.86412       54.01769
H        101.64767       84.13181       55.40156
H        102.11282       85.50151       54.33495
N        103.50519       85.73110       58.11837
C        103.07558       86.70222       59.12208
C        104.24127       87.27711       59.91289
O        105.38329       86.88609       59.71544
C        101.95668       86.10349       60.02393
C        102.14217       84.69918       60.57939
O        103.20335       84.30201       61.31272
O        101.26946       83.87461       60.35868
H        103.95311       84.87384       58.46336
H        102.62423       87.59351       58.63299
H        101.03971       86.05870       59.39267
H        101.72109       86.80477       60.84924
N        103.99554       88.29102       60.79292
C        104.98637       88.97553       61.60749
C        105.40882       88.14983       62.83832
O        106.34516       87.16777       62.51881
H        103.03074       88.65085       60.85673
H        104.47470       89.87901       62.00631
H        105.84578       89.33830       61.00432
N        105.91684       89.01064       63.91258
C        106.21850       88.28887       65.16866
C        105.06483       87.40550       65.63196
O        103.92783       87.85657       65.64751
C        106.56449       89.30870       66.27244
C        107.73943       90.17486       65.88679
N        108.95970       89.63211       65.66346
O        107.58714       91.38260       65.78046
H        105.17511       89.71910       64.12371
H        107.11495       87.64970       65.01777
H        106.81297       88.77591       67.21603
H        105.67751       89.95293       66.46587
H        109.11452       88.61812       65.75834
H        109.75722       90.22972       65.40006
N        105.31406       86.13971       66.07735
C        104.28419       85.20641       66.51223
C        104.28467       85.03279       68.02150
O        105.01037       85.75118       68.69457
H        106.29241       85.81900       66.14026
H        104.47921       84.24230       65.99866
H        103.26986       85.55671       66.22377
N        103.47898       84.13149       68.66403
C        102.63959       83.13574       67.99966
C        101.16081       83.37200       68.26024
O        100.79916       84.27144       69.00666
C        103.05827       81.71343       68.45881
C        104.51376       81.40882       68.09696
O        102.90202       81.57731       69.84923
H        103.49437       84.12396       69.69653
H        102.75929       83.19228       66.89999
H        102.44639       80.94287       67.93578
H        101.94634       81.36660       70.01647
H        104.66026       81.48026       66.99827
H        105.20560       82.11595       68.60176
H        104.77189       80.37794       68.42129
N        100.24739       82.60422       67.59862
C         98.80105       82.76330       67.68111
C         98.13130       81.41708       67.97893
O         98.55597       80.42961       67.39363
C         98.21826       83.40299       66.38080
C         98.33557       82.60638       65.04540
C         98.71124       84.84988       66.20969
C         99.69816       82.59221       64.33787
H        100.60720       81.88268       66.96453
H         98.54896       83.48349       68.48225
H         97.13345       83.47364       66.57683
H         97.63979       83.08816       64.32338
H         97.97386       81.56743       65.18664
H         98.19950       85.33135       65.34922
H         98.47995       85.44515       67.11878
H         99.80808       84.88397       66.04471
H        100.48653       82.07298       64.90092
H         99.59234       82.05218       63.37335
H        100.03432       83.62324       64.10353
N         97.04197       81.25720       68.79752
C         96.34395       82.33490       69.50186
C         94.85699       82.01526       69.73997
O         94.40402       80.91948       69.44652
C         97.07956       82.67707       70.82284
C         97.14993       81.54784       71.82265
O         97.77639       81.75059       72.99703
O         96.65803       80.45464       71.58991
H         96.64932       80.30525       68.85618
H         96.33098       83.22812       68.84755
H         96.58048       83.53962       71.31145
H         98.12163       82.98241       70.60095
N         94.03614       82.98086       70.25252
C         92.60458       82.81576       70.51607
C         91.81655       83.86419       69.72087
O         92.18130       85.02701       69.79786
C         92.34266       83.05700       72.02217
C         90.86641       82.96172       72.34864
C         90.12131       84.13335       72.57103
C         90.21365       81.71700       72.39525
C         88.74687       84.06305       72.81279
C         88.83769       81.65098       72.64610
C         88.10475       82.82350       72.84904
H         94.44981       83.89864       70.47096
H         92.26822       81.78865       70.27005
H         92.71123       84.07711       72.26827
H         92.91333       82.34424       72.65655
H         90.59889       85.10406       72.52941
H         90.76590       80.80117       72.22515
H         88.17848       84.97177       72.96336
H         88.33627       80.69202       72.67357
H         87.03885       82.77300       73.03151
N         90.67751       83.57059       69.00827
C         90.04339       82.26865       68.91088
C         90.71631       81.35490       67.90604
O         90.37477       80.18299       67.88087
C         88.60307       82.61151       68.51664
C         88.80857       83.81162       67.61340
C         89.86949       84.59874       68.37933
H         90.01393       81.74994       69.88210
H         88.00988       81.77499       68.08977
H         88.07481       82.98449       69.42536
H         89.25908       83.44087       66.66552
H         87.89570       84.39562       67.36892
H         90.44576       85.24204       67.68045
H         89.41507       85.21881       69.18423
N         91.67231       81.81435       67.04686
C         92.39210       80.93913       66.13344
C         91.40695       80.22855       65.20701
O         90.76117       80.92611       64.43701
C         93.43923       81.68428       65.25344
C         94.51646       82.48264       66.01684
C         94.14021       83.89766       66.40732
O         93.11186       84.41939       66.00642
O         95.00045       84.63790       67.12971
H         91.89203       82.80672       67.06583
H         92.96577       80.24305       66.76447
H         92.96942       82.33954       64.48810
H         93.97176       80.87541       64.70405
H         95.38794       82.59689       65.34172
H         94.84749       81.89236       66.89518
N         91.18771       78.87744       65.18686
C         91.80033       77.87402       66.03859
H         92.51095       78.26193       66.78232
H         91.00185       77.34390       66.59952
H         92.33696       77.13604       65.40758
H         90.49970       78.51885       64.50646
Ca       104.98731       85.45641       61.99339
O        105.52889       82.87148       63.51156
H        104.59067       82.88606       63.82772
H        106.05805       82.62069       64.30964
O        107.96628       85.00229       63.80605
H        108.54204       85.80182       63.90398
H        108.13366       84.47300       64.62565
O        108.25514       82.68326       61.48618
H        108.50880       82.29877       60.60959
H        108.95728       83.35527       61.67364
O        108.45471       86.03474       60.62343
H        109.28529       85.61064       60.29112
H        108.74401       86.92291       60.95207

Ca 1.0



