%chk=apoCaM-CA-Ng.loop3.water3.frame803.chk
%nprocshared=20
%mem=10GB
%nosave
#b3lyp/svp scf=(tight,noincore,xqc) Test 
#IOP(5/87=12) Density=Current Pop=(MK,readradii) iop(6/33=2) iop(6/42=6)

apoCaM-CA-Ng.loop3.water3.frame803 

   0  1 
C         11.80437       80.60003       82.43046
C         10.34368       80.28092       82.50335
O          9.65246       80.87151       83.31955
H         12.40697       79.68306       82.58671
H         12.02810       81.02626       81.42939
H         12.07908       81.35376       83.20019
N          9.80053       79.35571       81.66125
C          8.36914       79.09653       81.57879
C          8.08245       77.67131       82.02681
O          8.57278       76.74103       81.40104
C          7.92686       79.32908       80.11329
C          6.48424       79.73058       79.93620
O          6.24086       80.74720       79.31294
O          5.44595       79.04958       80.44514
H         10.42555       78.84589       81.01754
H          7.82604       79.81232       82.23114
H          8.19991       78.45142       79.49849
H          8.51332       80.18267       79.70382
N          7.30245       77.42436       83.11652
C          6.94752       76.07565       83.56207
C          6.17076       75.33200       82.48752
O          6.45999       74.16596       82.25830
C          6.10911       76.12604       84.86082
C          6.96878       76.47829       86.08854
C          6.11272       76.58292       87.35979
C          6.99047       76.66165       88.61864
N          6.17391       76.83727       89.82016
H          6.92893       78.23069       83.64031
H          7.86385       75.48451       83.79018
H          5.68349       75.11662       85.05975
H          5.26247       76.83036       84.73879
H          7.51312       77.43623       85.94131
H          7.71676       75.66365       86.21547
H          5.46205       75.68629       87.45581
H          5.46701       77.48522       87.28081
H          7.70858       77.50685       88.53875
H          7.57193       75.71558       88.70792
H          6.79216       76.80652       90.66315
H          5.69261       77.76529       89.78868
H          5.46316       76.07355       89.89598
N          5.18721       75.94994       81.77638
C          4.36478       75.28115       80.77125
C          4.69724       75.72197       79.34609
O          4.04385       75.25069       78.42575
C          2.87347       75.46219       81.13872
C          2.42794       76.89609       81.27202
O          2.45566       77.65034       80.31669
O          1.96489       77.34668       82.45355
H          5.02240       76.95094       81.94349
H          4.55696       74.18586       80.77588
H          2.70756       74.96486       82.11900
H          2.23408       74.95026       80.38833
N          5.74732       76.54930       79.07331
C          6.18205       76.90317       77.72909
C          5.23186       77.76783       76.92181
O          5.60566       78.09035       75.80322
H          6.33771       76.87728       79.84599
H          6.39598       75.97139       77.16228
H          7.13508       77.46517       77.80001
N          4.00306       78.16522       77.37130
C          3.07113       78.93022       76.54264
C          2.57051       80.18378       77.23887
O          2.76480       80.34639       78.43208
C          1.84988       78.05365       76.20471
C          2.24204       76.77792       75.50456
N          1.94945       75.57425       76.05131
O          2.82409       76.83094       74.43157
H          3.68775       77.87350       78.29912
H          3.56496       79.24000       75.59583
H          1.15079       78.61203       75.54601
H          1.31110       77.81233       77.14838
H          1.45635       75.50763       76.95404
H          2.21550       74.70245       75.57067
N          1.88099       81.11214       76.51730
C          1.22931       82.28925       77.07068
C          2.14095       83.14733       77.91352
O          3.25074       83.44390       77.49317
H          1.79279       80.96960       75.49939
H          0.34882       81.97676       77.67173
H          0.85077       82.90084       76.22283
N          1.69328       83.63890       79.10680
C          2.50629       84.48896       79.96388
C          3.61425       83.64506       80.65084
O          2.95804       82.63180       81.37472
C          1.65071       85.20387       81.05262
C          0.49112       86.03173       80.54633
C          0.65278       86.97657       79.51738
C         -0.77031       85.89581       81.15428
C         -0.43010       87.75833       79.09953
C         -1.84452       86.69112       80.74800
C         -1.68105       87.62209       79.71902
O         -2.72841       88.38206       79.34016
H          0.71822       83.44997       79.38375
H          2.96889       85.28297       79.33870
H          2.31270       85.90758       81.59894
H          1.27757       84.46360       81.79412
H          1.61040       87.11156       79.03363
H         -0.91974       85.19238       81.96429
H         -0.29347       88.47637       78.30090
H         -2.80363       86.58806       81.24035
H         -2.65825       89.04240       78.63627
N          4.41175       84.51315       81.56082
C          5.72776       84.01875       82.03144
C          5.53750       82.92807       83.07283
O          5.00569       81.88846       82.74183
C          6.65692       83.58042       80.85731
C          8.02405       83.01906       81.33450
C          6.87055       84.69108       79.81211
C          8.91510       84.01556       82.08181
H          4.58045       85.43355       81.09281
H          6.22500       84.87066       82.54298
H          6.13952       82.76655       80.33777
H          8.58961       82.64503       80.45268
H          7.84353       82.15035       81.99594
H          7.52554       84.32191       78.99321
H          5.91125       84.98715       79.34167
H          7.33369       85.59013       80.26685
H          9.86104       83.51292       82.37423
H          9.17720       84.87937       81.43828
H          8.42272       84.37743       83.00580
N          5.97994       83.06100       84.35441
C          5.76321       82.00644       85.34514
C          5.36859       82.50758       86.72743
O          5.08152       81.66996       87.56959
C          6.99829       81.10429       85.41694
O          8.10805       81.83914       85.85023
H          6.55244       83.88375       84.59054
H          4.91722       81.36688       85.02185
H          7.19066       80.69224       84.40248
H          6.79991       80.25764       86.11301
H          8.84494       81.18288       85.95118
N          5.35338       83.83353       87.06171
C          5.03081       84.27746       88.41415
C          3.56014       84.03807       88.73834
O          2.78897       83.82439       87.81191
C          5.36102       85.76580       88.54991
H          5.62503       84.54224       86.37129
H          5.68019       83.70395       89.11111
H          4.75388       86.36450       87.83805
H          5.16040       86.12553       89.56903
H          6.43780       85.93111       88.33193
N          3.06271       84.00969       90.01249
C          3.86740       84.04214       91.23006
C          3.11293       84.72646       92.37082
O          1.95625       84.38961       92.57966
C          4.17432       82.60117       91.64271
H          2.06540       83.76191       90.11298
H          4.84656       84.51196       91.05058
H          4.73799       82.08956       90.83313
H          4.80454       82.59464       92.55829
H          3.24069       82.03323       91.83963
N          3.69194       85.62287       93.22866
C          5.09759       86.00535       93.18253
C          5.35636       87.05815       92.10866
O          6.51294       87.31881       91.81368
C          5.55236       86.49541       94.57778
C          7.08055       86.60257       94.71820
C          7.46536       86.99561       96.11412
O          7.11482       88.07268       96.56916
O          8.21071       86.16461       96.86776
H          3.11878       85.95601       94.02141
H          5.68585       85.08349       92.98348
H          5.21601       85.74396       95.32749
H          5.06118       87.46514       94.81614
H          7.50105       87.35355       94.02170
H          7.53052       85.61154       94.48708
N          4.33001       87.72029       91.49263
C          4.53140       88.74017       90.48140
H          5.60396       88.90040       90.24429
H          4.00849       88.44170       89.54896
H          4.10452       89.70064       90.83850
H          3.35388       87.52187       91.75167
Ca         3.81290       80.51433       80.98876
O          0.60100       80.56380       80.78689
H          0.12805       80.31589       81.62023
H          0.28476       81.48027       80.59055
O          2.10654       81.24069       83.77803
H          1.31580       81.77225       83.50963
H          2.43824       81.68527       84.59787
O          4.28238       79.20808       84.02225
H          4.16607       78.49132       83.35413
H          3.88861       78.84477       84.85452

Ca 1.0



