%chk=apoCaM-CA-Ng.loop4.water5.frame585.chk
%nprocshared=20
%mem=10GB
%nosave
#b3lyp/svp scf=(tight,noincore,xqc) Test 
#IOP(5/87=12) Density=Current Pop=(MK,readradii) iop(6/33=2) iop(6/42=6)

apoCaM-CA-Ng.loop4.water5.frame585 

   -3  1 
C         63.14725      121.76348       67.54315
C         63.02993      122.50124       66.24531
O         63.20971      121.88883       65.20543
H         62.96187      122.43392       68.40824
H         62.40197      120.94081       67.56535
H         64.16799      121.33734       67.63398
N         62.72038      123.82779       66.22544
C         62.56886      124.61339       65.00440
C         61.44030      124.02947       64.18206
O         61.63995      123.66902       63.02897
C         63.89715      124.68641       64.21279
C         65.04172      125.00306       65.12598
O         65.07171      126.04844       65.75471
O         65.99097      124.06653       65.31625
H         62.56932      124.31593       67.12162
H         62.29184      125.65079       65.30062
H         63.82168      125.43484       63.39352
H         64.11021      123.70071       63.74790
N         60.21661      123.86985       64.75713
C         59.08579      123.25165       64.07622
C         57.99060      124.28299       63.86564
O         57.92717      125.23077       64.63714
C         58.59291      121.96713       64.81990
C         58.25452      122.23050       66.31374
C         59.64221      120.85163       64.66398
C         57.66467      121.01729       67.03931
H         60.08563      124.20912       65.72197
H         59.41388      122.93713       63.07978
H         57.67255      121.60721       64.31603
H         57.50789      123.05020       66.37600
H         59.16526      122.53920       66.86950
H         60.59196      121.12464       65.16609
H         59.27752      119.89005       65.07665
H         59.84341      120.67194       63.58622
H         56.73616      120.67675       66.53557
H         58.38884      120.17872       67.08777
H         57.41976      121.29754       68.08588
N         57.09262      124.22498       62.83519
C         57.01420      123.17804       61.81448
C         58.25753      123.07081       60.94042
O         58.79643      121.97864       60.83637
C         55.75960      123.34660       60.92070
C         55.75363      124.56852       60.03630
O         55.77246      125.80576       60.56675
O         55.70910      124.43950       58.82321
H         56.38876      124.97760       62.80366
H         56.85945      122.20561       62.32663
H         54.85531      123.36962       61.56539
H         55.68380      122.44407       60.27231
N         58.77260      124.14646       60.28053
C         59.85361      124.02882       59.31436
C         59.32853      123.34920       58.07194
O         58.36757      123.85564       57.50874
H         58.37270      125.08154       60.44382
H         60.72694      123.50491       59.76219
H         60.18437      125.04622       59.01254
N         59.88623      122.20471       57.57932
C         59.31826      121.51889       56.41729
C         58.15283      120.60821       56.79421
O         57.48242      120.12484       55.89319
C         60.39799      120.78870       55.58643
C         61.12212      119.66516       56.28614
O         60.85587      119.33824       57.56522
O         61.97534      119.03912       55.67811
H         60.70220      121.80148       58.06264
H         58.90650      122.29312       55.73052
H         61.15297      121.53528       55.25680
H         59.91529      120.37211       54.67448
N         57.83872      120.33852       58.09673
C         56.69630      119.53624       58.51064
C         56.77233      118.06874       58.13067
O         55.81749      117.36151       58.41665
H         58.40722      120.74701       58.84386
H         55.77556      119.98354       58.07741
H         56.60691      119.58297       59.61825
N         57.85437      117.53313       57.49074
C         57.96093      116.15384       57.02140
C         58.05481      115.11313       58.13405
O         58.19171      113.94495       57.79986
C         56.82775      115.79883       56.03042
C         56.67474      116.84226       54.90912
C         55.62253      116.46848       53.89376
N         55.32909      117.32362       52.88785
O         55.02762      115.40289       53.97122
H         58.65351      118.13656       57.26791
H         58.91836      116.07746       56.45657
H         55.85925      115.70979       56.56631
H         57.06041      114.80921       55.57849
H         57.64423      116.97913       54.38345
H         56.37364      117.81004       55.36027
H         55.81140      118.23141       52.81267
H         54.61120      117.08280       52.18859
N         58.04210      115.44314       59.46119
C         58.21435      114.45865       60.52851
C         59.54890      114.72512       61.20999
O         60.39484      113.84088       61.23455
C         56.98309      114.41593       61.49764
C         56.74111      115.68524       62.33324
C         55.70085      114.08576       60.71589
H         57.95847      116.42852       59.73657
H         58.27755      113.43227       60.10211
H         57.15276      113.58589       62.21956
H         55.83984      115.55535       62.97031
H         57.57691      115.86313       63.03809
H         56.58373      116.57375       61.68647
H         55.45818      114.89397       59.99309
H         55.81663      113.13031       60.16290
H         54.84218      113.97379       61.41351
N         59.81971      115.94725       61.74216
C         61.08479      116.32184       62.37013
C         62.20710      116.40264       61.32188
O         61.94553      116.20846       60.14492
C         60.85111      117.69199       63.06585
C         62.00931      118.20064       63.87549
N         62.62351      119.35770       63.53857
O         62.41129      117.55457       64.83193
H         59.08485      116.66609       61.69188
H         61.33766      115.56938       63.14939
H         59.98863      117.59746       63.76221
H         60.57707      118.43685       62.28677
H         62.30313      119.91345       62.73166
H         63.43714      119.68761       64.07482
N         63.47838      116.74853       61.69165
C         64.56440      117.01438       60.75241
C         65.85000      116.34010       61.24636
O         65.83552      115.73539       62.30766
C         64.73988      118.55307       60.71073
C         65.64272      119.04779       59.60929
C         66.87583      119.64475       59.91448
C         65.25217      118.92711       58.26427
C         67.71281      120.09983       58.89272
C         66.08469      119.39617       57.24319
C         67.31846      119.97914       57.55232
O         68.11419      120.41888       56.55672
H         63.68132      116.92440       62.67921
H         64.29480      116.64855       59.73840
H         65.10693      118.88494       61.70757
H         63.75161      119.03914       60.55056
H         67.19579      119.74307       60.94124
H         64.29906      118.48111       58.00685
H         68.66628      120.54606       59.14502
H         65.77054      119.30605       56.21064
H         68.97659      120.82344       56.72843
N         67.01451      116.43660       60.53836
C         68.29321      115.92580       61.01862
C         69.29564      117.08261       61.08079
O         70.02806      117.27124       60.11988
C         68.75171      114.77913       60.09337
C         70.07513      114.14587       60.55684
C         70.42467      112.95402       59.71464
O         70.55293      111.74132       60.28641
O         70.60056      113.07652       58.51287
H         67.00876      116.89517       59.61845
H         68.19599      115.46723       62.02064
H         68.85058      115.14169       59.04643
H         67.96221      113.99480       60.11564
H         69.97972      113.82168       61.61595
H         70.90320      114.88271       60.49112
N         69.37492      117.95353       62.13589
C         68.57726      117.86322       63.35773
C         68.95836      116.65264       64.19683
O         69.92871      115.97004       63.89295
C         68.76908      119.11916       64.24575
C         68.23922      120.40419       63.60077
C         68.32290      121.54322       64.57616
O         68.97895      122.53806       64.31372
O         67.66035      121.47123       65.74704
H         70.04405      118.73536       62.04828
H         67.50491      117.79310       63.07939
H         69.84469      119.24094       64.50969
H         68.20351      118.97873       65.19091
H         67.17109      120.26745       63.32879
H         68.81731      120.64273       62.68258
N         68.22147      116.34439       65.30047
C         68.55121      115.24617       66.17949
H         69.55482      115.41018       66.62640
H         67.80560      115.18952       67.00184
H         68.53944      114.28904       65.61836
H         67.39209      116.91184       65.53227
Ca        67.48312      124.16358       66.99961
O         70.23012      122.61443       67.71731
H         70.78161      122.62856       66.89507
H         70.88444      122.68453       68.45715
O         67.51220      121.06155       68.84081
H         68.15884      120.31440       68.90429
H         67.41665      121.38540       69.77133
O         68.29450      124.09231       70.06247
H         67.53389      123.80773       70.62889
H         68.50177      125.01044       70.36916
O         66.87620      126.58007       68.63177
H         66.04865      126.10155       68.89047
H         66.74346      126.80912       67.67794
O         69.86190      125.73386       66.55639
H         70.40244      125.23336       65.89509
H         69.17363      126.19668       66.01491

Ca 1.0



