%chk=apoCaM-CA-Ng.loop3.water4.frame269.chk
%nprocshared=20
%mem=10GB
%nosave
#b3lyp/svp scf=(tight,noincore,xqc) Test 
#IOP(5/87=12) Density=Current Pop=(MK,readradii) iop(6/33=2) iop(6/42=6)

apoCaM-CA-Ng.loop3.water4.frame269 

   0  1 
C         48.84933        8.85178       11.66369
C         49.92738        7.96893       12.22722
O         51.09422        8.27527       12.04405
H         47.83725        8.48088       11.93307
H         48.96059        9.87585       12.08089
H         48.92977        8.89929       10.55858
N         49.60317        6.85251       12.93841
C         50.56020        5.99012       13.62479
C         51.58574        5.38180       12.67241
O         52.77964        5.51220       12.91017
C         51.20815        6.77237       14.79695
C         52.06655        5.94080       15.71958
O         52.20846        4.73973       15.54974
O         52.68121        6.53526       16.75919
H         48.60557        6.60866       13.03732
H         49.98173        5.15046       14.07021
H         50.40182        7.22115       15.41574
H         51.82430        7.59677       14.38768
N         51.18808        4.69503       11.56502
C         52.13138        4.02317       10.67856
C         52.36061        4.86785        9.45146
O         51.93222        4.50707        8.36236
C         51.65731        2.60527       10.30963
C         51.40604        1.70847       11.53088
C         51.10464        0.25619       11.11922
C         52.35737       -0.47888       10.60070
N         52.03793       -1.84621       10.19604
H         50.18436        4.66513       11.32832
H         53.12504        3.89796       11.16598
H         52.45586        2.17316        9.67370
H         50.72159        2.65184        9.70927
H         50.52537        2.11781       12.07245
H         52.27476        1.71830       12.22421
H         50.29649        0.24643       10.35476
H         50.73962       -0.29272       12.01386
H         53.11917       -0.50402       11.41228
H         52.80302        0.04189        9.72955
H         51.37409       -1.82908        9.38786
H         52.91809       -2.32627        9.89775
H         51.61568       -2.37439       10.99321
N         53.10987        5.99838        9.55971
C         53.40344        6.86015        8.42876
C         54.82881        6.59841        7.96557
O         55.62606        6.04733        8.71367
C         53.13312        8.31400        8.86548
C         53.10875        9.33815        7.76793
O         54.20582        9.60033        7.04665
O         52.09437        9.98509        7.56308
H         53.53645        6.22897       10.47093
H         52.72409        6.60073        7.58736
H         53.89587        8.59682        9.61750
H         52.13384        8.33999        9.35473
N         55.18133        6.87797        6.68526
C         56.48624        6.59186        6.11686
C         57.58337        7.37244        6.79146
O         58.60541        6.79228        7.13172
H         54.47406        7.28828        6.06102
H         56.46948        6.90472        5.05093
H         56.69857        5.49966        6.14304
N         57.43119        8.70980        7.00215
C         58.48280        9.57815        7.51672
C         58.24763       10.05351        8.93157
O         59.17955       10.62144        9.48470
C         58.67875       10.79093        6.56987
C         57.58539       11.89900        6.63166
N         57.69927       12.74173        7.81272
O         56.29267       11.38721        6.57239
H         56.52731        9.11461        6.75514
H         59.43108        8.99521        7.53819
H         58.75216       10.40260        5.53143
H         59.64852       11.28329        6.79680
H         58.62811       13.21533        7.79097
H         56.98026       13.49502        7.72720
N         57.05002        9.90846        9.57647
C         56.86573       10.37631       10.94190
C         55.93337       11.55844       11.07185
O         55.94973       12.14318       12.14849
H         56.25137        9.46897        9.09844
H         57.83325       10.71564       11.36602
H         56.52163        9.54203       11.59000
N         55.06221       11.96204       10.09435
C         54.17186       13.10752       10.29694
C         54.04971       13.97733        9.06105
O         54.46099       13.58127        7.97715
C         52.75043       12.66089       10.73938
C         52.77668       11.89707       12.04020
C         53.23373       10.57345       12.07160
C         52.36314       12.50411       13.23769
C         53.31053        9.87290       13.27366
C         52.43851       11.80228       14.44524
C         52.91883       10.48856       14.46870
O         53.00469        9.83166       15.64172
H         54.96757       11.40378        9.23208
H         54.58485       13.75837       11.09931
H         52.23824       12.05957        9.95575
H         52.13759       13.57479       10.89000
H         53.53901       10.08894       11.16219
H         52.00568       13.52628       13.24249
H         53.67820        8.85439       13.27015
H         52.13512       12.28448       15.36526
H         53.35946        8.93354       15.69911
N         53.40020       15.17015        9.16004
C         53.02144       15.97458        8.00859
C         54.24861       16.57541        7.34029
O         54.47341       16.24905        6.18715
C         51.90132       16.99873        8.37935
C         50.67332       16.22465        8.95964
C         51.45048       17.78957        7.13374
C         49.50415       17.10185        9.40227
H         53.08807       15.46987       10.09608
H         52.53596       15.29835        7.27957
H         52.29801       17.70901        9.13882
H         50.96487       15.63968        9.85311
H         50.30027       15.50282        8.19920
H         50.72002       18.57785        7.40593
H         52.28735       18.30250        6.64576
H         50.99783       17.11275        6.37915
H         49.06106       17.65328        8.54981
H         48.70732       16.45055        9.82169
H         49.83254       17.81442       10.18671
N         55.10504       17.42634        7.98410
C         56.28736       17.97437        7.30634
C         55.91141       18.91796        6.16691
O         56.72998       19.12161        5.28134
C         57.22822       18.68739        8.28666
O         57.63626       17.78779        9.28069
H         54.93180       17.65448        8.97458
H         56.85197       17.11560        6.87622
H         56.69683       19.55091        8.74640
H         58.12598       19.05152        7.73608
H         58.14956       18.31918        9.94294
N         54.68362       19.51595        6.12380
C         54.17958       20.36994        5.04940
C         53.98761       19.64854        3.71306
O         53.55740       20.30688        2.77587
C         55.04089       21.63137        4.89623
H         54.06007       19.38375        6.92782
H         53.16680       20.72261        5.34940
H         54.57801       22.31969        4.15594
H         55.09396       22.16740        5.86789
H         56.06767       21.39647        4.55363
N         54.23867       18.31395        3.54316
C         54.04961       17.61315        2.27605
C         53.01153       16.50680        2.39903
O         52.51832       16.24381        3.48712
C         55.39514       17.04108        1.81970
H         54.57643       17.75436        4.33048
H         53.68834       18.31349        1.49326
H         56.13297       17.86072        1.69494
H         55.79021       16.33855        2.57645
H         55.30149       16.50181        0.85458
N         52.60652       15.84205        1.27539
C         51.61489       14.76836        1.23134
C         50.21187       15.19185        1.65754
O         49.34228       14.33075        1.68359
C         52.08910       13.50787        1.99180
C         53.42686       12.99773        1.43676
C         53.71247       11.58109        1.84292
O         52.94373       10.69576        1.50451
O         54.87092       11.23404        2.42599
H         53.02784       16.11244        0.37401
H         51.50802       14.45070        0.16899
H         51.31926       12.72138        1.82406
H         52.16955       13.67612        3.08110
H         54.25107       13.68249        1.73220
H         53.37166       12.97781        0.32699
N         49.88927       16.48603        1.94848
C         48.55346       16.90391        2.32693
H         47.83884       16.05575        2.38474
H         48.59066       17.39520        3.32097
H         48.17092       17.62917        1.57858
H         50.59616       17.22893        1.87900
Ca        55.57415       11.77640        4.47655
O         55.98271       14.49936        4.15759
H         55.00927       14.55191        4.33407
H         56.41143       14.67380        5.03211
O         51.64592       10.57485        4.54975
H         50.79859       11.04395        4.34434
H         51.36355        9.68812        4.88797
O         54.41165        9.10868        4.25243
H         53.81022        8.39827        3.91790
H         55.29788        8.89375        3.86698
O         52.08253       13.37518        5.68300
H         52.10448       14.28472        5.29290
H         51.27075       13.37259        6.24943

Ca 1.0



