%chk=apoCaM-CA-Ng.loop2.water3.frame776.chk
%nprocshared=20
%mem=10GB
%nosave
#b3lyp/svp scf=(tight,noincore,xqc) Test 
#IOP(5/87=12) Density=Current Pop=(MK,readradii) iop(6/33=2) iop(6/42=6)

apoCaM-CA-Ng.loop2.water3.frame776 

   -2  1 
C        101.40618      103.26811        2.99674
C        102.63905      102.96317        3.79580
O        103.10747      103.84009        4.50779
H        100.58011      103.55111        3.68243
H        101.61199      104.11395        2.30749
H        101.08375      102.39237        2.39553
N        103.23214      101.73722        3.72245
C        104.43651      101.40348        4.47403
C        104.14174      101.46666        5.96058
O        103.31775      100.69263        6.43001
C        104.94203       99.99954        4.06953
C        106.24147       99.63038        4.73598
O        106.31451       99.51179        6.07576
O        107.23389       99.41139        4.05986
H        102.82108      101.02800        3.09524
H        105.22796      102.13706        4.20108
H        105.09335       99.98931        2.96702
H        104.17774       99.22963        4.31440
N        104.76677      102.38502        6.75505
C        104.52476      102.49423        8.19082
C        103.83965      103.83034        8.51125
O        103.82218      104.68734        7.63809
C        105.86447      102.33685        8.91873
H        105.42944      103.04727        6.32226
H        103.87211      101.66472        8.50154
H        106.56189      103.14803        8.61952
H        105.76110      102.35607       10.01639
H        106.32070      101.36075        8.64695
N        103.21154      104.11520        9.69962
C        103.04260      103.18883       10.82010
C        102.26979      101.94149       10.43238
O        101.65311      101.91331        9.37613
C        102.36245      103.86536       12.03648
C        101.05987      104.59214       11.75832
O        100.92498      105.73368       12.16970
O        100.04496      104.03751       11.06185
H        102.80661      105.06000        9.79408
H        104.04191      102.86283       11.15946
H        103.07050      104.60149       12.47873
H        102.17962      103.09583       12.81608
N        102.30803      100.84120       11.24283
C        101.65920       99.58644       10.90279
C        102.67173       98.47022       10.77361
O        103.65511       98.67226       10.07511
H        102.84163      100.88315       12.12494
H        101.13904       99.66183        9.92573
H        100.90859       99.36806       11.67764
N        102.51507       97.23622       11.34542
C        101.34662       96.80060       12.11255
C        100.08012       96.91071       11.28332
O        100.00950       96.34190       10.20187
C        101.47901       95.32893       12.56460
C        102.49221       95.14401       13.66634
N        102.10060       94.68020       14.87829
O        103.66858       95.40810       13.47061
H        103.26490       96.54707       11.17519
H        101.24216       97.42626       13.02643
H        101.72477       94.67601       11.69770
H        100.49130       94.99880       12.95632
H        101.11275       94.44969       15.06471
H        102.78356       94.55058       15.63835
N         99.02014       97.61826       11.76505
C         97.77668       97.75754       11.03252
C         96.78317       98.57437       11.83071
O         96.38536       98.13874       12.90025
H         99.10596       98.07085       12.68880
H         97.34078       96.75539       10.83106
H         97.99442       98.24730       10.05847
N         96.32922       99.76353       11.34575
C         95.38579      100.65819       12.02676
C         94.89145      101.68434       11.02216
O         95.71354      102.30105       10.35540
C         95.98483      101.43218       13.23997
C         96.42738      100.57229       14.42302
O         97.05654      102.23942       12.82885
H         96.64945      100.02426       10.40031
H         94.50921      100.07135       12.38091
H         95.15256      102.07721       13.61551
H         97.05968      103.04155       13.41407
H         95.59285       99.92251       14.76257
H         97.31814       99.96569       14.16731
H         96.71641      101.23318       15.26778
N         93.56100      101.94144       10.87585
C         93.06046      102.85481        9.85826
C         92.79688      104.21713       10.47332
O         91.95047      104.34446       11.34652
C         91.81422      102.26272        9.14118
C         91.32309      103.23308        8.03195
C         92.15187      100.87453        8.55815
C         90.03817      102.78401        7.33681
H         92.88609      101.49159       11.51354
H         93.83609      102.98035        9.07408
H         91.00306      102.13649        9.89286
H         92.11968      103.37112        7.26815
H         91.10289      104.22314        8.48433
H         92.95558      100.95553        7.79518
H         92.49139      100.18227        9.35698
H         91.26146      100.40191        8.09897
H         90.18363      101.83518        6.78335
H         89.22283      102.66111        8.08076
H         89.73348      103.55753        6.60046
N         93.50886      105.28891       10.02459
C         93.35505      106.65772       10.47658
C         92.90403      107.58186        9.33619
O         92.80749      108.77568        9.58708
C         94.71358      107.14363       11.04327
C         95.07672      106.50181       12.35744
O         94.31488      106.63472       13.30219
O         96.28182      105.92959       12.58277
H         94.22554      105.13746        9.30801
H         92.58111      106.74064       11.27164
H         94.63465      108.23016       11.26411
H         95.52731      107.00902       10.29724
N         92.59155      107.12976        8.07840
C         92.20670      108.02071        6.98107
C         93.12641      107.85512        5.76518
O         92.62856      107.55735        4.68529
C         90.72733      107.78015        6.56496
C         89.68969      108.37023        7.48721
C         88.68737      107.56852        8.05821
C         89.66644      109.76012        7.71241
C         87.67957      108.15116        8.83704
C         88.66167      110.33561        8.49289
C         87.66639      109.53270        9.05240
H         92.61891      106.12114        7.87393
H         92.30865      109.08674        7.27125
H         90.56417      106.69311        6.39025
H         90.53310      108.30305        5.60263
H         88.67001      106.50025        7.88309
H         90.41258      110.40500        7.26575
H         86.89933      107.53437        9.26331
H         88.64760      111.40680        8.65040
H         86.88076      109.98368        9.64501
N         94.47111      108.10338        5.81092
C         95.29525      108.18639        4.61305
C         95.61481      106.83997        3.98556
O         96.29853      106.84118        2.97082
C         96.54849      108.91711        5.10252
C         96.67770      108.39247        6.51437
C         95.22844      108.43959        6.99841
H         94.81050      108.82429        3.83884
H         97.44386      108.81453        4.45249
H         96.30862      110.00214        5.19098
H         96.99142      107.32536        6.43717
H         97.39943      108.92850        7.16522
H         95.11859      107.69584        7.81205
H         94.92560      109.45328        7.34002
N         95.14994      105.66072        4.49230
C         95.37723      104.39241        3.81602
C         94.27577      104.19765        2.80306
O         94.56192      104.09996        1.61812
C         95.43913      103.16476        4.76463
C         96.46481      103.27899        5.90971
C         95.95649      104.03521        7.10831
O         96.75805      104.22263        8.17154
O         94.79970      104.41045        7.16623
H         94.51625      105.68274        5.29379
H         96.36486      104.42812        3.30030
H         95.75180      102.31319        4.12040
H         94.44743      102.89366        5.18791
H         97.40690      103.72517        5.52573
H         96.69053      102.25730        6.28237
N         92.97650      104.15522        3.21564
C         91.85186      103.99032        2.32082
H         91.17857      104.86790        2.41733
H         92.16479      103.89950        1.26012
H         91.29176      103.07553        2.60576
H         92.76401      104.25334        4.22022
Ca        97.94518      104.87158       11.42982
O         98.98561      102.44278        8.16843
H         99.60655      103.21324        8.19774
H         99.06850      102.09186        7.24689
O         99.03726      106.08698        8.68637
H         98.31120      106.75899        8.64619
H         99.20517      105.84500        7.74099
O         99.04496      101.39806       11.07335
H         99.00835      100.72709       10.34772
H         99.10958      100.86581       11.90546

Ca 1.0



