%chk=apoCaM-CA-Ng.loop1.water3.frame271.chk
%nprocshared=20
%mem=10GB
%nosave
#b3lyp/svp scf=(tight,noincore,xqc) Test 
#IOP(5/87=12) Density=Current Pop=(MK,readradii) iop(6/33=2) iop(6/42=6)

apoCaM-CA-Ng.loop1.water3.frame271 

   0  1 
C         24.51076       16.51293       33.52812
C         24.74953       17.92238       33.98058
O         25.74829       18.51370       33.59612
H         23.56255       16.46746       32.95126
H         25.33921       16.16092       32.87705
H         24.43399       15.84214       34.40881
N         23.85197       18.52721       34.80623
C         23.96933       19.90986       35.25148
C         24.12037       20.00422       36.76818
O         24.13156       21.11324       37.26160
C         22.71071       20.69887       34.80995
C         22.48792       20.68089       33.32010
O         22.49460       21.72453       32.68654
O         22.23487       19.52173       32.68214
H         23.02845       17.98839       35.11869
H         24.85512       20.40569       34.79692
H         22.81967       21.75785       35.13175
H         21.80629       20.28184       35.30426
N         24.24395       18.91612       37.58037
C         24.22461       18.99006       39.04619
C         25.54132       18.52120       39.66047
O         26.05031       17.51176       39.19346
C         23.07279       18.10081       39.55017
C         21.70542       18.76353       39.31524
C         20.56435       17.81814       39.70974
C         19.20143       18.52267       39.82833
N         18.80073       19.21531       38.60399
H         24.30811       17.97860       37.15724
H         24.01527       20.00810       39.39373
H         23.16699       17.94386       40.64617
H         23.13416       17.10371       39.06071
H         21.58258       19.05930       38.25091
H         21.66293       19.67895       39.94413
H         20.77624       17.37455       40.70697
H         20.51474       16.99278       38.96586
H         19.23945       19.25495       40.66562
H         18.43827       17.75416       40.08270
H         19.44313       20.01536       38.41374
H         18.79728       18.55726       37.79268
H         17.83867       19.60296       38.73833
N         26.14206       19.10498       40.75987
C         25.68086       20.26531       41.54310
C         24.27332       20.05583       42.07847
O         23.35090       20.71890       41.62674
C         25.87395       21.58622       40.77957
C         27.32263       21.88918       40.55321
O         28.29011       21.12128       41.09088
O         27.63221       22.85574       39.88083
H         27.00106       18.65069       41.10787
H         26.32682       20.39227       42.43915
H         25.45004       22.43171       41.35768
H         25.37732       21.54137       39.80231
N         24.01107       19.16489       43.07556
C         25.06758       18.49942       43.82472
C         24.54765       17.54418       44.88381
O         23.36471       17.23692       44.89351
H         23.02738       19.03728       43.35633
H         25.65013       19.29751       44.33398
H         25.73659       17.92880       43.14695
N         25.36992       17.01449       45.83672
C         26.75821       17.42793       46.02334
C         26.83347       18.68091       46.88393
O         25.83066       19.09842       47.44822
C         27.60170       16.27555       46.61632
C         27.09625       15.79171       47.95259
O         27.05316       16.62354       49.01104
O         26.72833       14.63504       48.08339
H         24.94273       16.39325       46.54092
H         27.20754       17.66806       45.03575
H         28.65790       16.59950       46.73526
H         27.59052       15.42873       45.89569
N         28.01665       19.34166       47.00836
C         28.21224       20.51746       47.83808
C         27.30401       21.66189       47.46638
O         26.63530       22.18536       48.34737
H         28.83599       18.99049       46.48968
H         29.26223       20.86133       47.71955
H         28.05934       20.25132       48.90704
N         27.24153       22.12331       46.18446
C         26.43677       23.28843       45.81251
C         24.95908       23.06218       46.14009
O         24.56015       21.94755       46.45123
C         26.63474       23.65084       44.30470
C         28.10281       23.95541       43.96457
O         25.87438       24.78355       43.97350
H         27.80290       21.63742       45.47049
H         26.78945       24.14595       46.42841
H         26.28663       22.78445       43.69642
H         25.86186       24.85074       42.98329
H         28.46398       24.81821       44.56340
H         28.76413       23.08767       44.14650
H         28.19064       24.21350       42.88696
N         24.09091       24.10790       46.09036
C         22.66493       24.01412       46.36726
C         21.91760       24.04598       45.04861
O         21.01536       23.23680       44.88155
C         22.22798       25.15492       47.33775
C         22.97199       25.09409       48.70182
C         20.70165       25.17790       47.55680
C         22.68824       23.84579       49.54833
H         24.45444       25.03482       45.82829
H         22.40721       23.04279       46.84341
H         22.49623       26.12730       46.86698
H         22.68305       25.98345       49.30441
H         24.06715       25.15710       48.52752
H         20.42505       26.00673       48.24380
H         20.16977       25.35342       46.59882
H         20.33628       24.22046       47.98149
H         23.25892       23.91005       50.49875
H         21.61290       23.77310       49.81132
H         23.00395       22.92128       49.02504
N         22.27427       24.89829       44.04113
C         21.58160       24.93366       42.75761
C         22.48417       24.40280       41.65135
O         23.65889       24.16379       41.88412
C         21.11917       26.38059       42.46521
C         20.29274       26.95505       43.62157
O         20.34998       26.41169       41.29163
H         23.07474       25.53361       44.16787
H         20.69194       24.26722       42.79161
H         22.03328       27.00891       42.33804
H         20.37961       27.34308       40.95027
H         19.98465       27.99370       43.38027
H         19.38777       26.33695       43.79770
H         20.89437       26.99216       44.55494
N         21.96381       24.13290       40.42175
C         22.74493       23.56539       39.32452
C         23.80959       24.52368       38.80671
O         23.63689       25.73025       38.90768
C         21.82896       23.11843       38.14767
C         20.98273       24.23733       37.52052
O         21.01478       22.04073       38.53448
H         20.95412       24.27465       40.29570
H         23.25072       22.65024       39.70077
H         22.47313       22.75323       37.33067
H         20.36244       22.36621       39.20626
H         21.63283       25.05598       37.15290
H         20.41600       23.82779       36.65741
H         20.25050       24.65649       38.23864
N         24.92752       24.02851       38.19218
C         25.93386       24.84669       37.52325
C         27.18605       24.02353       37.19321
O         28.26805       24.44554       37.57068
C         25.32753       25.54501       36.27673
C         24.95986       24.59964       35.11472
C         24.21252       25.31304       33.97741
C         22.75069       25.62110       34.34584
N         22.06406       26.30115       33.24930
H         25.06523       23.01615       38.19816
H         26.24890       25.65154       38.22538
H         26.05332       26.29344       35.89031
H         24.43448       26.10658       36.60681
H         24.34248       23.74488       35.46486
H         25.90901       24.20719       34.69201
H         24.19414       24.63528       33.09595
H         24.75936       26.23793       33.69015
H         22.69209       26.26078       35.24954
H         22.22904       24.66110       34.56337
H         22.50130       27.23687       33.08477
H         22.11229       25.72811       32.37584
H         21.06039       26.43803       33.50933
N         27.11106       22.82894       36.52949
C         28.25624       21.97700       36.20928
C         28.35836       21.83735       34.70701
O         27.40061       21.41454       34.07282
C         28.08321       20.59589       36.88413
C         29.11426       19.52490       36.45808
C         30.57888       19.84467       36.66979
O         31.11221       19.97619       37.90172
O         31.32731       19.85838       35.70575
H         26.18612       22.48175       36.23995
H         29.20327       22.41223       36.59089
H         27.08305       20.18707       36.61845
H         28.09587       20.72824       37.98264
H         28.95983       19.31619       35.37658
H         28.88509       18.58140       36.99927
N         29.51915       22.15366       34.07158
C         29.67399       22.02128       32.64130
H         30.70820       22.30043       32.34775
H         29.48947       20.96951       32.33465
H         28.95925       22.69356       32.12228
H         30.32847       22.48296       34.61967
Ca        29.92977       20.45669       39.73674
O         30.82067       23.34433       38.71754
H         29.94635       22.89729       38.82526
H         30.62034       24.30708       38.82573
O         31.05722       21.94870       42.84809
H         31.65800       21.58038       43.54373
H         31.12820       22.93070       42.95399
O         33.10353       21.97796       40.39840
H         33.86884       22.22961       40.97356
H         33.12728       22.63587       39.65952

Ca 1.0



