%chk=apoCaM-CA-Ng.loop2.water6.frame1110.chk
%nprocshared=20
%mem=10GB
%nosave
#b3lyp/svp scf=(tight,noincore,xqc) Test 
#IOP(5/87=12) Density=Current Pop=(MK,readradii) iop(6/33=2) iop(6/42=6)

apoCaM-CA-Ng.loop2.water6.frame1110 

   -2  1 
C         48.88548       73.89387       61.23999
C         50.18580       73.36059       61.76787
O         50.57411       73.75529       62.85791
H         48.43971       74.61033       61.96371
H         49.04538       74.41893       60.27723
H         48.17159       73.05416       61.10256
N         50.92479       72.42799       61.10329
C         50.59588       71.84976       59.80120
C         51.81782       71.97975       58.87908
O         52.31288       73.09191       58.76415
C         50.02874       70.42342       60.03445
C         50.92613       69.59981       60.91629
O         52.04538       69.29060       60.54524
O         50.55197       69.30287       62.17661
H         51.76706       72.07413       61.57864
H         49.78257       72.42412       59.31156
H         49.79747       69.90442       59.08069
H         49.06712       70.54575       60.57982
N         52.35851       70.92298       58.19071
C         53.54794       71.00034       57.33755
C         54.77798       71.38210       58.15703
O         55.41961       72.38723       57.88215
C         53.29834       71.92161       56.13079
H         51.91746       69.99740       58.25530
H         53.74173       69.98662       56.92091
H         54.17588       71.90414       55.45020
H         52.41360       71.56106       55.56269
H         53.11615       72.97180       56.43530
N         55.13097       70.61049       59.22413
C         56.19646       70.95709       60.16429
C         57.58950       70.74141       59.61272
O         57.91409       69.62839       59.21941
C         56.11829       70.08321       61.44305
C         54.81411       70.17979       62.17121
O         54.56889       69.37560       63.22306
O         53.93630       70.92948       61.77914
H         54.54000       69.79116       59.43266
H         56.05343       72.01055       60.47795
H         56.92764       70.37052       62.15000
H         56.26157       69.01994       61.15736
N         58.51741       71.73289       59.71231
C         59.94454       71.49854       59.54646
C         60.48423       70.62119       60.67001
O         59.71413       70.14812       61.49592
H         58.22224       72.67156       60.02042
H         60.46810       72.47561       59.62974
H         60.16446       71.06683       58.54680
N         61.82584       70.40635       60.79267
C         62.40981       69.64679       61.90016
C         62.02869       70.29458       63.22014
O         62.35663       71.45562       63.42752
C         63.94915       69.60509       61.76185
C         64.62625       68.85605       62.88636
N         64.39605       67.53773       63.08566
O         65.40274       69.44988       63.62008
H         62.45126       70.82748       60.08837
H         62.02091       68.60496       61.86231
H         64.33187       70.65039       61.74414
H         64.22500       69.12492       60.79876
H         63.75594       67.01375       62.47250
H         64.86933       67.03634       63.85250
N         61.30671       69.60743       64.15175
C         60.87308       70.21925       65.39607
C         62.02672       70.55949       66.31117
O         63.14848       70.15243       66.04257
H         61.01521       68.63724       63.95723
H         60.20276       69.52281       65.94568
H         60.29695       71.12594       65.15734
N         61.84198       71.27646       67.45461
C         60.58716       71.92923       67.82284
C         60.44145       73.20349       66.99514
O         61.38470       73.98259       66.97187
C         60.59580       72.25065       69.34103
C         59.26108       72.84167       69.81656
O         60.88216       71.09064       70.08578
H         62.65980       71.41052       68.07153
H         59.73371       71.23314       67.66468
H         61.40072       72.98807       69.55253
H         60.19767       70.40592       69.86249
H         59.03653       73.79100       69.28825
H         58.43311       72.12313       69.63101
H         59.30964       73.04781       70.90671
N         59.29110       73.49999       66.31666
C         59.14998       74.69994       65.48129
C         58.40735       75.82458       66.21006
O         57.50246       75.51820       66.97418
C         58.48633       74.40735       64.10064
C         57.03407       73.87800       64.23930
C         59.36954       73.46730       63.26192
C         56.29726       73.80741       62.90630
H         58.48126       72.87541       66.43752
H         60.15158       75.06212       65.22131
H         58.43799       75.37264       63.55240
H         56.44465       74.56628       64.87852
H         57.02702       72.87146       64.70772
H         59.40585       72.46107       63.71121
H         58.98945       73.37005       62.22793
H         60.40135       73.87183       63.18440
H         56.79912       73.09843       62.22878
H         55.25782       73.45378       63.07136
H         56.26084       74.81129       62.43295
N         58.64470       77.15962       65.97456
C         59.72204       77.67195       65.12039
C         59.56792       79.14544       64.72491
O         58.71205       79.85414       65.23265
C         61.09655       77.52721       65.85614
C         61.21335       78.31488       67.14184
O         62.36926       78.27564       67.83070
O         60.28493       78.97968       67.57465
H         58.01439       77.83655       66.43070
H         59.71393       77.11215       64.16437
H         61.91618       77.85471       65.18472
H         61.32176       76.48542       66.12577
N         60.48533       79.66674       63.85700
C         60.72402       81.08723       63.63356
C         60.82210       81.42439       62.14136
O         61.57739       80.75147       61.45518
C         62.11241       81.36995       64.26258
C         62.63348       82.75755       63.98184
C         63.74770       82.92005       63.13871
C         62.01984       83.89048       64.53580
C         64.23108       84.19519       62.84503
C         62.51009       85.16744       64.24230
C         63.61276       85.31924       63.39569
H         61.16662       79.01825       63.43495
H         59.97434       81.71373       64.15477
H         62.83027       80.63370       63.83493
H         62.08731       81.18846       65.35937
H         64.23514       82.05976       62.69563
H         61.16447       83.78442       65.19110
H         65.08331       84.30898       62.18750
H         62.03407       86.04010       64.66869
H         63.98940       86.30681       63.16549
N         60.23528       82.53870       61.58841
C         59.34274       83.45931       62.26340
C         57.95238       82.85654       62.35681
O         57.41833       82.80249       63.45497
C         59.47500       84.74781       61.43785
C         59.71816       84.25857       60.02676
C         60.59159       83.01991       60.26056
H         59.68149       83.73558       63.28155
H         58.66643       85.49761       61.57258
H         60.43315       85.22687       61.74861
H         58.74441       83.97908       59.59552
H         60.15739       85.00448       59.33055
H         60.42942       82.26819       59.45885
H         61.66411       83.31325       60.29372
N         57.32491       82.33815       61.26091
C         56.03107       81.68486       61.30577
C         55.06931       82.45988       60.41034
O         55.20401       82.34926       59.19937
C         56.19923       80.22902       60.81035
C         57.21134       79.44558       61.66595
C         57.46195       78.08102       61.09278
O         58.58684       77.76279       60.73913
O         56.45096       77.20198       60.96372
H         57.78907       82.34485       60.34882
H         55.65442       81.62403       62.34050
H         56.57539       80.24828       59.76192
H         55.21657       79.70882       60.81906
H         56.83277       79.34982       62.70533
H         58.18080       79.98936       61.69617
N         54.09554       83.30236       60.87135
C         53.85806       83.68081       62.25161
H         52.82671       83.39587       62.54287
H         54.56551       83.24755       62.97552
H         53.95790       84.78394       62.33887
H         53.48904       83.76050       60.17284
Ca        52.36761       69.02403       63.46296
O         50.38887       66.29694       63.19894
H         50.25964       65.32201       63.31299
H         49.64352       66.57872       62.61130
O         51.63401       66.20042       60.19128
H         51.24915       66.70733       59.43282
H         51.50554       65.24998       59.94541
O         52.60642       67.50594       66.10358
H         53.35052       66.87994       65.91724
H         51.85186       67.16139       65.56275
O         53.20578       64.74771       62.68896
H         52.44640       64.25741       62.28513
H         53.91587       64.06488       62.78762
O         55.04611       66.68095       60.16909
H         54.84535       65.74503       59.91631
H         56.00851       66.67201       60.40184
O         55.64040       66.68767       63.42116
H         56.40879       67.21380       63.08454
H         55.95687       65.75010       63.40799

Ca 1.0



