%chk=apoCaM-CA-Ng.loop4.water7.frame523.chk
%nprocshared=20
%mem=10GB
%nosave
#b3lyp/svp scf=(tight,noincore,xqc) Test 
#IOP(5/87=12) Density=Current Pop=(MK,readradii) iop(6/33=2) iop(6/42=6)

apoCaM-CA-Ng.loop4.water7.frame523 

   -3  1 
C         95.47833      -13.53805       54.60527
C         96.06447      -14.91348       54.70250
O         95.41799      -15.79686       55.23989
H         94.46700      -13.50870       55.06395
H         96.13002      -12.81548       55.13558
H         95.39805      -13.24085       53.53907
N         97.29774      -15.16557       54.18337
C         97.97085      -16.46185       54.21633
C         97.13965      -17.51530       53.48725
O         96.83381      -18.55104       54.06205
C         98.27743      -16.90284       55.66871
C         98.88551      -15.82350       56.51465
O         98.29360      -15.44302       57.51202
O        100.06943      -15.26860       56.20637
H         97.79911      -14.38742       53.72687
H         98.94184      -16.34431       53.68415
H         98.94494      -17.79189       55.65616
H         97.33313      -17.19890       56.16043
N         96.71323      -17.29671       52.21244
C         95.84747      -18.22348       51.48411
C         96.60313      -18.72271       50.25664
O         97.10596      -17.88975       49.51551
C         94.50980      -17.51872       51.08375
C         93.77427      -16.99842       52.34840
C         93.59574      -18.48074       50.29247
C         92.47408      -16.24462       52.05498
H         96.99161      -16.42084       51.74278
H         95.57035      -19.07476       52.13467
H         94.75020      -16.65302       50.42771
H         94.43894      -16.29021       52.87847
H         93.54772      -17.84512       53.03417
H         92.69078      -17.96297       49.91912
H         94.11204      -18.87755       49.39444
H         93.27089      -19.32869       50.93220
H         92.04915      -15.85983       53.00607
H         92.66968      -15.38608       51.37884
H         91.71025      -16.90827       51.60136
N         96.71025      -20.04502       49.91931
C         96.00315      -21.12608       50.60043
C         96.69813      -21.62502       51.85018
O         96.04514      -22.33542       52.59818
C         95.66219      -22.27339       49.62649
C         96.87217      -22.90882       48.99888
O         97.01806      -22.87455       47.78711
O         97.79211      -23.52875       49.76131
H         97.19450      -20.26029       49.03414
H         95.01104      -20.75345       50.91257
H         95.01440      -21.85611       48.82284
H         95.07504      -23.05591       50.15536
N         97.98478      -21.30338       52.17414
C         98.59535      -21.78389       53.40322
C         98.75229      -23.29262       53.40897
O         99.60233      -23.80861       52.69769
H         98.53640      -20.68541       51.56175
H         97.96185      -21.45280       54.25491
H         99.59893      -21.32856       53.54902
N         97.94644      -24.05735       54.19859
C         98.07245      -25.50585       54.36098
C         96.94047      -26.28744       53.69255
O         96.90691      -27.50175       53.84009
C         98.21310      -25.83780       55.87191
C         97.06381      -25.43745       56.77330
O         96.06313      -24.88920       56.34230
O         97.15490      -25.68179       58.09405
H         97.19798      -23.57481       54.71383
H         99.00281      -25.87028       53.87242
H         99.12283      -25.32381       56.25040
H         98.37126      -26.93148       55.98967
N         96.01307      -25.67942       52.89531
C         94.94141      -26.38301       52.20140
C         93.85492      -26.91671       53.11596
O         92.89639      -27.47755       52.60584
H         96.09083      -24.67599       52.71563
H         95.37058      -27.20664       51.59063
H         94.44732      -25.66781       51.50755
N         93.92027      -26.76616       54.46838
C         92.91686      -27.21646       55.42235
C         91.62328      -26.43658       55.26860
O         90.54825      -26.96168       55.52148
C         92.74889      -28.74932       55.40768
C         94.11955      -29.44489       55.51211
C         94.03958      -30.94596       55.58245
N         95.18209      -31.66912       55.62105
O         92.95917      -31.51758       55.60325
H         94.72379      -26.28677       54.88139
H         93.30143      -26.94196       56.43126
H         92.25055      -29.07609       54.46987
H         92.10633      -29.04308       56.26643
H         94.65546      -29.07999       56.41457
H         94.72220      -29.18717       54.61445
H         96.09990      -31.19967       55.59397
H         95.15197      -32.69767       55.67018
N         91.68912      -25.12887       54.89766
C         90.56221      -24.21440       54.83101
C         90.85506      -23.03629       55.75636
O         90.04561      -22.75479       56.62951
C         90.24408      -23.80844       53.34958
C         91.43718      -23.27862       52.52936
C         89.63142      -25.00424       52.59896
H         92.61241      -24.74210       54.66225
H         89.63260      -24.69461       55.21358
H         89.46192      -23.01695       53.36901
H         91.84192      -22.33845       52.94239
H         92.24203      -24.04132       52.45350
H         91.10794      -23.03778       51.49538
H         89.34228      -24.70792       51.56673
H         90.34772      -25.85026       52.53763
H         88.70918      -25.35013       53.11332
N         92.00380      -22.31166       55.63055
C         92.32149      -21.12906       56.42875
C         92.63548      -21.48284       57.89383
O         92.69071      -22.65667       58.22822
C         93.46989      -20.38509       55.70205
C         93.73157      -18.99078       56.18939
N         94.98799      -18.59405       56.47104
O         92.80892      -18.19623       56.28939
H         92.66782      -22.57670       54.89200
H         91.42874      -20.46620       56.39693
H         93.16510      -20.26840       54.63963
H         94.39658      -21.00348       55.71870
H         95.78252      -19.23470       56.33045
H         95.16752      -17.64266       56.81578
N         92.79216      -20.49537       58.83224
C         93.00349      -20.75188       60.26816
C         92.79163      -19.48344       61.11049
O         92.52336      -18.42732       60.55833
C         94.38598      -21.39240       60.57091
C         95.54918      -20.43862       60.41362
C         95.89782      -19.94656       59.15383
C         96.30209      -20.03893       61.53310
C         96.96949      -19.05800       59.00788
C         97.37364      -19.15213       61.38717
C         97.70880      -18.65620       60.12540
O         98.74383      -17.80275       59.99702
H         92.67034      -19.52841       58.51302
H         92.21656      -21.46942       60.59109
H         94.55370      -22.29675       59.94965
H         94.36404      -21.74730       61.62288
H         95.33740      -20.26821       58.29372
H         96.05879      -20.40713       62.52119
H         97.23423      -18.68199       58.03143
H         97.94395      -18.84984       62.25559
H         99.00936      -17.44356       59.13866
N         92.85269      -19.53596       62.47680
C         92.51433      -18.40107       63.33152
C         93.66848      -18.03216       64.26777
O         93.64381      -18.46695       65.41163
C         91.24834      -18.74343       64.15088
C         90.03589      -19.02018       63.25235
C         88.80990      -19.27457       64.07990
O         87.83597      -18.54650       63.97334
O         88.77624      -20.30968       64.94101
H         93.07335      -20.42985       62.93848
H         92.22934      -17.51779       62.73877
H         91.00863      -17.87484       64.80547
H         91.43836      -19.63036       64.79641
H         90.22630      -19.90965       62.61482
H         89.86177      -18.14177       62.59244
N         94.71639      -17.22205       63.91999
C         94.93909      -16.59523       62.61654
C         93.86092      -15.58809       62.24026
O         93.00022      -15.27985       63.05426
C         96.32140      -15.88011       62.60733
C         96.36783      -14.62508       63.50966
C         97.74002      -14.01847       63.53399
O         98.78000      -14.72236       64.02029
O         97.91652      -12.87756       63.13656
H         95.43045      -17.07115       64.65062
H         94.96108      -17.40763       61.85930
H         96.57625      -15.56972       61.57214
H         97.09591      -16.60690       62.93436
H         96.08510      -14.87421       64.55270
H         95.64686      -13.86858       63.12794
N         93.88462      -15.00545       61.00816
C         92.92285      -14.01545       60.56929
H         92.15716      -13.79477       61.34210
H         93.45512      -13.07237       60.32410
H         92.40750      -14.38439       59.65830
H         94.62410      -15.26999       60.34025
Ca       100.78693      -13.67925       57.64448
O        101.75324      -16.35063       58.77213
H        102.18070      -16.27494       59.66189
H        102.50911      -16.44053       58.13893
O         99.24618      -11.60276       59.81256
H         99.90833      -11.28474       60.47589
H         98.42181      -11.09617       60.02182
O         97.89323      -12.62116       57.16924
H         97.40664      -11.97146       57.73502
H         98.16379      -12.10469       56.36942
O         99.47414      -14.83964       60.51095
H         98.55917      -15.05187       60.20010
H         99.36182      -14.02594       61.06176
O        102.23529      -12.93596       60.27971
H        101.79755      -13.13688       61.14472
H        102.91526      -13.64765       60.17412
O        103.51455      -13.83922       56.60619
H        103.67721      -13.29876       57.42001
H        103.09416      -13.20744       55.96971
O        100.66948      -10.75570       57.08562
H        101.59305      -10.90628       56.76190
H        100.16841      -10.46568       56.28266

Ca 1.0



