%chk=apoCaM-CA-Ng.loop4.water4.frame833.chk
%nprocshared=20
%mem=10GB
%nosave
#b3lyp/svp scf=(tight,noincore,xqc) Test 
#IOP(5/87=12) Density=Current Pop=(MK,readradii) iop(6/33=2) iop(6/42=6)

apoCaM-CA-Ng.loop4.water4.frame833 

   -3  1 
C         51.76611       89.13295       60.33485
C         52.15887       89.41918       58.91231
O         53.20552       90.01085       58.69642
H         50.79343       88.60140       60.39276
H         52.53303       88.48926       60.81316
H         51.69066       90.07835       60.90396
N         51.37718       88.98921       57.88108
C         51.71681       89.13576       56.46449
C         53.05090       88.44759       56.16903
O         53.87724       88.97460       55.43721
C         51.68277       90.62155       56.03590
C         50.34672       91.27382       56.28443
O         49.25327       90.55137       56.60418
O         50.26780       92.49193       56.26911
H         50.51147       88.47446       58.10557
H         50.94123       88.59161       55.88079
H         51.94094       90.74871       54.96396
H         52.44369       91.16650       56.63350
N         53.32218       87.25455       56.76769
C         54.53958       86.46592       56.57212
C         54.52907       85.85165       55.17203
O         53.50327       85.29243       54.81124
C         54.69174       85.40110       57.71855
C         53.50145       84.41345       57.86343
C         54.99913       86.14590       59.03785
C         53.76174       83.31777       58.89979
H         52.61947       86.90908       57.43067
H         55.42030       87.13225       56.67150
H         55.57036       84.77175       57.49815
H         53.33304       83.90648       56.89228
H         52.56577       84.92784       58.15712
H         55.88970       86.79982       58.90803
H         54.14391       86.77952       59.35265
H         55.25431       85.44736       59.85752
H         53.86342       83.73968       59.92011
H         52.90288       82.61571       58.91710
H         54.68160       82.75206       58.64070
N         55.57038       85.92675       54.27978
C         56.91617       86.43464       54.55073
C         57.70209       86.57820       53.25193
O         58.01635       85.58480       52.61056
C         57.65572       85.46473       55.51775
C         59.13198       85.66388       55.74081
O         59.75981       86.51805       55.14665
O         59.78081       84.84847       56.59373
H         55.39259       85.55416       53.33293
H         56.84736       87.44723       55.00137
H         57.53482       84.42578       55.14078
H         57.20074       85.54849       56.50864
N         58.08907       87.82109       52.84805
C         58.98131       88.10018       51.73507
C         60.19082       88.90802       52.19399
O         60.94520       89.35683       51.34339
H         57.75210       88.63847       53.38023
H         58.41819       88.71501       51.00099
H         59.32223       87.17400       51.22424
N         60.42064       89.15483       53.51977
C         61.46346       90.02437       54.04466
C         62.44648       89.24905       54.90685
O         63.63739       89.32514       54.63486
C         60.83165       91.21822       54.80739
C         59.93286       90.87283       55.97352
O         58.90270       90.24084       55.80329
O         60.22351       91.32846       57.20627
H         59.80505       88.72807       54.21430
H         62.04544       90.47933       53.21117
H         60.22692       91.81052       54.08748
H         61.65559       91.87052       55.17178
N         62.03765       88.46697       55.94914
C         62.97919       87.74847       56.79273
C         63.67334       88.66122       57.78451
O         64.59872       88.20638       58.43970
H         61.03490       88.35420       56.14311
H         63.71444       87.21846       56.14697
H         62.44460       86.97603       57.38679
N         63.23833       89.94010       57.99726
C         63.82674       90.87932       58.94546
C         63.75125       90.40022       60.38872
O         64.50360       90.89774       61.21610
C         65.24616       91.30031       58.48832
C         65.22173       91.96732       57.09316
C         64.49409       93.29845       57.04741
N         64.31658       93.92845       55.86452
O         64.06893       93.81996       58.06821
H         62.42884       90.28635       57.47212
H         63.19783       91.79026       58.94461
H         65.90066       90.40395       58.44979
H         65.69768       92.01432       59.21071
H         64.74780       91.26921       56.37072
H         66.26449       92.14421       56.75444
H         64.66046       93.51047       54.98831
H         63.82098       94.83194       55.82453
N         62.79320       89.51159       60.78325
C         62.58973       89.09153       62.16855
C         61.16228       89.36893       62.65605
O         60.87207       89.03511       63.79470
C         62.92986       87.57977       62.32031
C         62.06337       86.67420       61.42510
C         64.41778       87.32785       62.03872
H         62.16788       89.11262       60.06834
H         63.26680       89.65032       62.85221
H         62.74824       87.28744       63.37842
H         62.30878       85.60790       61.61484
H         60.98500       86.82103       61.64370
H         62.24269       86.87463       60.34807
H         64.67687       87.58827       60.99257
H         65.04435       87.93950       62.72257
H         64.66565       86.25865       62.20825
N         60.21291       89.93638       61.85110
C         58.80233       90.06125       62.22009
C         58.36015       91.52767       62.16210
O         59.17127       92.37323       61.81454
C         58.04239       89.13694       61.23838
C         56.56216       89.03440       61.45820
N         55.70248       89.37024       60.47095
O         56.13187       88.63343       62.52940
H         60.46202       90.23568       60.89897
H         58.62788       89.69958       63.25601
H         58.45470       88.10889       61.34434
H         58.24597       89.47292       60.19793
H         56.04323       89.69721       59.55450
H         54.69025       89.29674       60.62510
N         57.07731       91.90039       62.47908
C         56.59395       93.27607       62.35478
C         55.73510       93.68064       63.55891
O         55.39552       92.83566       64.37338
C         55.78980       93.35013       61.03732
C         55.42070       94.73971       60.58237
C         54.07408       95.10192       60.41994
C         56.42459       95.67374       60.27185
C         53.73638       96.37709       59.95722
C         56.08525       96.94749       59.80698
C         54.74247       97.30354       59.64561
O         54.43247       98.53188       59.18415
H         56.39238       91.18098       62.73569
H         57.46367       93.96365       62.29241
H         54.88603       92.70861       61.13924
H         56.40972       92.91510       60.22230
H         53.28562       94.39563       60.64132
H         57.47032       95.41270       60.37596
H         52.69352       96.64003       59.83304
H         56.86789       97.65523       59.56312
H         53.51716       98.81318       59.04373
N         55.36174       94.98296       63.73118
C         54.49216       95.46537       64.80248
C         53.36517       96.28793       64.18515
O         53.42656       97.50901       64.24275
C         55.29839       96.31844       65.80608
C         56.26762       95.46363       66.63215
C         56.97424       96.30128       67.65805
O         56.80815       96.04356       68.96989
O         57.70085       97.21831       67.31053
H         55.73040       95.68826       63.07716
H         54.05718       94.64492       65.40548
H         54.58243       96.78162       66.52389
H         55.84055       97.13219       65.27524
H         57.01602       94.97527       65.97428
H         55.68804       94.67230       67.15868
N         52.29155       95.73159       63.55628
C         51.99935       94.30595       63.48009
C         51.72427       93.73522       64.85814
O         50.97414       94.33681       65.61489
C         50.75928       94.07906       62.59316
C         50.46418       92.58568       62.42649
C         49.36461       92.35495       61.44511
O         48.22564       92.74127       61.65291
O         49.67502       91.71453       60.31258
H         51.61587       96.38346       63.12430
H         52.84861       93.77665       62.99444
H         50.97430       94.50950       61.59021
H         49.86947       94.59551       63.01608
H         50.19513       92.10680       63.39097
H         51.38670       92.09904       62.04062
N         52.24945       92.52939       65.21420
C         51.99789       91.89381       66.49104
H         51.39628       92.53251       67.17116
H         51.44752       90.94308       66.32605
H         52.96558       91.66862       66.98407
H         52.82430       92.01065       64.53331
Ca        48.41048       91.08237       58.59569
O         49.06355       94.76204       59.24598
H         49.53116       95.09856       58.44098
H         49.32812       95.38706       59.96671
O         46.18524       91.26192       56.42345
H         46.47829       91.06410       55.49862
H         45.28142       90.86369       56.49044
O         46.52692       94.22476       57.47627
H         45.91401       94.94976       57.75756
H         46.41428       94.17147       56.49399
O         45.34078       91.94183       59.62057
H         44.84722       91.14898       59.94966
H         44.63484       92.55930       59.30285

Ca 1.0



