%chk=apoCaM-CA-Ng.loop4.water3.frame593.chk
%nprocshared=20
%mem=10GB
%nosave
#b3lyp/svp scf=(tight,noincore,xqc) Test 
#IOP(5/87=12) Density=Current Pop=(MK,readradii) iop(6/33=2) iop(6/42=6)

apoCaM-CA-Ng.loop4.water3.frame593 

   -3  1 
C         49.94566      125.90396       79.59735
C         50.35898      126.70423       78.39713
O         50.32427      126.15870       77.31000
H         48.88243      125.59619       79.49957
H         50.57831      124.99325       79.66028
H         50.06436      126.48359       80.53546
N         50.79718      127.99233       78.52870
C         51.23851      128.87505       77.43474
C         50.08230      129.34382       76.56933
O         50.23589      129.56545       75.37697
C         52.40063      128.23994       76.66187
C         53.44616      127.90185       77.66176
O         54.06514      128.78604       78.23091
O         53.60922      126.63298       78.04532
H         50.84541      128.38434       79.48122
H         51.60985      129.80922       77.91204
H         52.82419      128.90480       75.88116
H         52.05643      127.31396       76.16076
N         48.88817      129.55525       77.17703
C         47.64496      130.00731       76.56487
C         47.65605      131.51713       76.34004
O         47.92281      132.22752       77.29714
C         46.42604      129.62868       77.49001
C         46.57956      130.09092       78.98254
C         46.18811      128.10711       77.43148
C         45.32363      129.96110       79.82998
H         48.87000      129.33129       78.17033
H         47.47772      129.46424       75.62097
H         45.53083      130.11759       77.04393
H         46.86669      131.15379       79.04100
H         47.35216      129.49897       79.51299
H         47.03583      127.55510       77.89101
H         45.25128      127.83243       77.95455
H         46.07635      127.76895       76.37904
H         45.56224      130.31344       80.85801
H         44.51676      130.59686       79.41401
H         44.98878      128.90867       79.90544
N         47.32422      132.14662       75.17373
C         47.02252      131.56864       73.86725
C         48.02253      132.08630       72.83430
O         48.45702      131.28499       72.01828
C         45.53965      131.79059       73.48667
C         45.06748      133.21081       73.60888
O         44.09590      133.51416       74.49284
O         45.54613      134.08999       72.91278
H         47.26613      133.17301       75.23651
H         47.13270      130.46904       73.85426
H         44.92150      131.17332       74.17708
H         45.34450      131.41448       72.45878
N         48.55248      133.35139       72.88720
C         49.64114      133.77348       72.02230
C         49.16173      133.92924       70.60577
O         48.40212      134.84996       70.33924
H         48.25086      134.02192       73.60424
H         50.46386      133.02999       72.10697
H         50.05122      134.75002       72.36474
N         49.55008      133.05085       69.64039
C         49.04160      133.12052       68.27068
C         47.52976      132.88425       68.17668
O         46.96104      133.20184       67.14088
C         49.77000      132.12050       67.33340
C         49.94177      130.72858       67.91058
O         48.90705      130.03474       68.41189
O         51.05649      130.23686       67.96889
H         50.20695      132.30170       69.90562
H         49.24227      134.14577       67.88327
H         50.78717      132.50925       67.11091
H         49.22566      132.07221       66.36396
N         46.82269      132.28552       69.17886
C         45.40110      131.95793       69.10690
C         45.05243      130.83371       68.12570
O         43.89282      130.45197       68.07040
H         47.30895      132.03038       70.04261
H         44.81633      132.87567       68.88377
H         45.09021      131.59911       70.11077
N         46.00594      130.23083       67.35892
C         45.82467      129.14561       66.39915
C         45.26073      127.85372       66.98332
O         44.82695      127.01326       66.20582
C         45.08275      129.58934       65.12319
C         45.63304      130.90772       64.54606
C         45.01508      131.26472       63.21398
N         45.37886      132.40605       62.58566
O         44.18978      130.52897       62.69135
H         46.95989      130.57113       67.42254
H         46.84186      128.87365       66.03619
H         43.99634      129.69761       65.31441
H         45.23495      128.78478       64.36445
H         46.73468      130.83282       64.41123
H         45.41879      131.72850       65.26354
H         46.07241      133.04161       63.00629
H         44.96482      132.65539       61.67494
N         45.26871      127.59842       68.32543
C         44.82626      126.31781       68.88744
C         45.87456      125.68220       69.78971
O         45.82107      124.47641       69.98986
C         43.47302      126.49755       69.63769
C         42.72350      125.16370       69.78712
C         43.61304      127.15607       71.02387
H         45.59005      128.34276       68.95275
H         44.63782      125.61063       68.05076
H         42.83857      127.14751       68.99803
H         42.56041      124.70552       68.78835
H         43.28214      124.44607       70.42334
H         41.72694      125.33862       70.24543
H         44.11987      126.46534       71.73268
H         44.18430      128.10495       70.97307
H         42.60672      127.37108       71.44170
N         46.76426      126.45231       70.48075
C         47.55131      125.95849       71.59021
C         49.03281      126.03586       71.27868
O         49.40516      126.51283       70.21415
C         47.16378      126.84320       72.79327
C         47.61681      126.30880       74.10608
N         48.48285      127.01657       74.84562
O         47.19552      125.23661       74.51279
H         46.82617      127.46462       70.32176
H         47.29988      124.89822       71.80413
H         46.06236      126.93055       72.87261
H         47.55841      127.87268       72.61899
H         48.85507      127.90271       74.48985
H         48.76963      126.67185       75.76051
N         49.94096      125.59692       72.19246
C         51.37633      125.70510       72.01398
C         52.05402      124.40286       72.42464
O         51.56395      123.73322       73.32546
C         51.85500      126.89489       72.86058
C         53.28589      127.24373       72.56600
C         54.30992      126.64252       73.29719
C         53.60679      128.15700       71.54844
C         55.64657      126.93501       73.02044
C         54.94402      128.45421       71.26853
C         55.96853      127.84214       72.00034
O         57.25382      128.12894       71.71376
H         49.60561      125.23317       73.09276
H         51.61917      125.93882       70.95372
H         51.69609      126.70424       73.94305
H         51.23139      127.78186       72.60944
H         54.05186      125.94482       74.07306
H         52.82373      128.63174       70.96926
H         56.42800      126.45457       73.59475
H         55.18316      129.15586       70.47929
H         57.98914      127.71625       72.18882
N         53.19307      123.98488       71.80140
C         53.90447      122.76313       72.16188
C         55.35137      123.11525       72.47326
O         56.11879      123.27910       71.53544
C         53.75318      121.74486       71.00694
C         54.35371      120.35374       71.28652
C         55.84363      120.29991       71.10427
O         56.64575      119.98219       72.13728
O         56.33071      120.50243       70.00242
H         53.57567      124.55933       71.03581
H         53.43386      122.28012       73.04509
H         54.14321      122.15409       70.04817
H         52.65819      121.59957       70.87957
H         53.92258      119.62793       70.56397
H         54.06430      120.02808       72.30893
N         55.81913      123.32968       73.73995
C         54.98401      123.34028       74.93947
C         54.80844      121.95635       75.53053
O         55.55645      121.04483       75.20487
C         55.50290      124.32483       76.02347
C         56.98666      124.12357       76.40245
C         57.37446      124.81748       77.67765
O         56.45921      125.43576       78.42867
O         58.52937      124.78689       78.06368
H         56.80704      123.60408       73.81883
H         53.97047      123.69718       74.66507
H         54.84760      124.19939       76.91181
H         55.39308      125.37803       75.69649
H         57.62272      124.53033       75.58674
H         57.20679      123.04683       76.53934
N         53.78923      121.74521       76.41327
C         53.50254      120.47279       77.03961
H         52.49197      120.13547       76.72580
H         54.23991      119.69038       76.76731
H         53.50609      120.59927       78.14305
H         53.15370      122.52643       76.63752
Ca        55.01831      126.46725       79.73336
O         55.63778      126.33727       82.62437
H         56.07537      127.12615       83.03179
H         56.01533      125.56139       83.10964
O         56.88736      128.66826       79.71163
H         57.81987      128.90074       79.47629
H         56.43988      129.53820       79.86366
O         54.92492      123.89092       80.67001
H         55.40172      123.08588       80.34956
H         54.66774      123.68832       81.60357

Ca 1.0



