%chk=apoCaM-CA-Ng.loop1.water2.frame934.chk
%nprocshared=20
%mem=10GB
%nosave
#b3lyp/svp scf=(tight,noincore,xqc) Test 
#IOP(5/87=12) Density=Current Pop=(MK,readradii) iop(6/33=2) iop(6/42=6)

apoCaM-CA-Ng.loop1.water2.frame934 

   0  1 
C          8.91965      103.06483       68.50662
C          9.32359      101.68365       68.92250
O          9.34248      100.78657       68.09137
H          8.02573      103.37808       69.08602
H          9.75155      103.77210       68.70700
H          8.67479      103.09380       67.42382
N          9.66991      101.44170       70.21593
C         10.07711      100.12283       70.69300
C          8.97100       99.08531       70.54405
O          7.84183       99.42674       70.22169
C         10.55321      100.20297       72.16952
C          9.52143      100.72912       73.14295
O          9.81976      100.85966       74.31924
O          8.29232      101.09806       72.72909
H          9.66799      102.23904       70.87131
H         10.94106       99.79013       70.07607
H         11.43156      100.88289       72.21361
H         10.88981       99.20210       72.51472
N          9.25189       97.77665       70.78999
C          8.26565       96.70871       70.79080
C          8.22223       96.19461       72.21124
O          8.77375       95.14114       72.50355
C          8.64737       95.61927       69.76088
C          7.58828       94.49667       69.70738
C          7.99949       93.36485       68.75946
C          6.96243       92.23026       68.78484
N          7.38510       91.11156       67.94322
H         10.21991       97.52103       71.04126
H          7.25295       97.07691       70.51131
H          9.64090       95.19379       70.02269
H          8.72294       96.08112       68.75165
H          6.61138       94.92125       69.38577
H          7.45652       94.05512       70.71660
H          8.97972       92.95908       69.09199
H          8.10488       93.75577       67.72386
H          5.97929       92.61209       68.42964
H          6.83752       91.86470       69.82914
H          7.49042       91.42441       66.95121
H          8.29320       90.72586       68.29134
H          6.66214       90.35723       67.98822
N          7.59499       96.93679       73.16490
C          7.58626       96.56788       74.57519
C          6.27680       95.89190       74.94141
O          5.34211       95.95294       74.15362
C          7.92707       97.80808       75.44224
C          6.92300       98.93419       75.39474
O          5.89681       98.85755       74.73763
O          7.15777      100.04308       76.12003
H          7.08130       97.77757       72.86203
H          8.37384       95.80138       74.73769
H          8.91070       98.20078       75.10631
H          8.02673       97.53760       76.50704
N          6.12951       95.12666       76.06060
C          7.15037       94.87220       77.06696
C          7.63651       93.45109       76.99597
O          7.48643       92.81497       75.96390
H          5.22939       94.63834       76.19017
H          6.69508       95.07629       78.05942
H          8.05245       95.49476       76.97806
N          8.28595       92.90262       78.05971
C          8.76320       91.52335       78.08136
C          7.58397       90.56784       77.96372
O          6.68322       90.62290       78.79038
C          9.54163       91.26035       79.39077
C         10.16652       89.88977       79.48459
O         10.86859       89.56346       80.58576
O         10.05899       89.07445       78.58175
H          8.43379       93.49476       78.89219
H          9.47264       91.38088       77.23504
H          8.86160       91.40244       80.25868
H         10.36399       92.00445       79.46839
N          7.53112       89.65759       76.95025
C          6.43330       88.71841       76.76503
C          5.14879       89.35709       76.26498
O          4.21301       88.62022       75.99073
H          8.32402       89.59921       76.29302
H          6.25781       88.14679       77.70130
H          6.73546       87.99446       75.97678
N          5.04223       90.70115       76.06824
C          3.90756       91.35835       75.44108
C          3.28748       92.35275       76.41518
O          3.78026       92.52070       77.52286
C          4.41135       92.07850       74.14981
C          5.20472       91.14287       73.23119
O          3.33195       92.59711       73.41762
H          5.81768       91.30690       76.32300
H          3.13352       90.61154       75.15956
H          5.09151       92.90542       74.46105
H          3.68147       93.34699       72.86855
H          6.11300       90.76240       73.74397
H          4.57535       90.28650       72.91185
H          5.53969       91.70233       72.33142
N          2.19792       93.06995       76.03981
C          1.55921       94.08450       76.86557
C          0.90664       93.42515       78.06211
O          1.13354       93.88362       79.17402
C          0.56878       94.91445       75.98799
C          1.39886       95.67945       74.90937
C         -0.25175       95.90522       76.83783
C          0.56676       96.39946       73.85196
H          1.79578       92.88965       75.11163
H          2.31785       94.81370       77.23381
H         -0.14390       94.21661       75.49402
H          2.04728       94.97395       74.35102
H          2.06940       96.41543       75.40704
H          0.41496       96.62405       77.35988
H         -0.96820       96.47061       76.20846
H         -0.85911       95.36488       77.59347
H         -0.06179       97.19622       74.29423
H          1.25385       96.87785       73.12045
H         -0.07105       95.67031       73.30989
N          0.10654       92.32977       77.91417
C         -0.58843       91.70095       79.03373
C         -2.08110       91.70614       78.75589
O         -2.48695       92.00992       77.64045
C         -0.04342       90.27248       79.29311
C          1.46691       90.30022       79.57199
O         -0.69708       89.71001       80.40218
H         -0.01613       91.92542       76.97224
H         -0.42943       92.29830       79.95866
H         -0.23641       89.64947       78.38912
H         -0.49950       88.73688       80.39631
H          2.02180       90.69657       78.69719
H          1.68664       90.93295       80.45889
H          1.83707       89.27208       79.77128
N         -2.96499       91.45606       79.75960
C         -4.40742       91.54757       79.59133
C         -4.89358       92.79062       80.31509
O         -5.49799       93.63620       79.67046
C         -5.09597       90.23725       80.04697
C         -6.59897       90.25319       79.75211
O         -4.90280       90.00758       81.41929
H         -2.59751       91.26974       80.70436
H         -4.66376       91.67106       78.51387
H         -4.67420       89.39052       79.45258
H         -4.09044       89.44490       81.51206
H         -6.77631       90.39330       78.66384
H         -7.05325       89.28588       80.05556
H         -7.10461       91.07076       80.30666
N         -4.62339       92.99451       81.63921
C         -5.03466       94.19215       82.36248
C         -3.82813       94.93052       82.90588
O         -3.07467       94.35966       83.68316
C         -5.94522       93.82646       83.53864
C         -7.24591       93.16058       83.07845
C         -8.21761       92.92583       84.24639
C         -7.67762       92.02406       85.37312
N         -7.33811       90.68273       84.89703
H         -4.09414       92.28089       82.16083
H         -5.60589       94.87812       81.69939
H         -6.20122       94.76225       84.08403
H         -5.39209       93.15159       84.22654
H         -7.02399       92.20479       82.55986
H         -7.75263       93.82974       82.34889
H         -9.14896       92.47720       83.83986
H         -8.48176       93.91154       84.68901
H         -8.46528       91.94337       86.15371
H         -6.79029       92.48642       85.85659
H         -6.54068       90.72090       84.22288
H         -7.04605       90.09851       85.71323
H         -8.17025       90.24089       84.44366
N         -3.60810       96.22773       82.54992
C         -2.53585       97.04822       83.10328
C         -1.41465       97.23539       82.08397
O         -0.31312       96.81188       82.40635
C         -3.10220       98.36372       83.69412
C         -2.02922       99.19717       84.41234
C         -2.62207      100.45059       84.99389
O         -3.59699      100.37324       85.92038
O         -2.21662      101.54531       84.63666
H         -4.25682       96.64702       81.87416
H         -2.08112       96.51268       83.96852
H         -3.89354       98.09982       84.43093
H         -3.57314       98.99124       82.91468
H         -1.22665       99.47058       83.69340
H         -1.57936       98.60314       85.23670
N         -1.53566       97.80417       80.84559
C         -2.72710       98.35863       80.23718
H         -3.61247       98.35382       80.87925
H         -2.53441       99.41408       79.95733
H         -2.96515       97.78246       79.31817
H         -0.68824       97.83527       80.25746
Ca         6.83278      102.12982       74.11534
O          5.75347      101.75821       71.09846
H          5.39818      102.54986       70.62208
H          5.69519      101.02464       70.43654
O          3.59755      100.99693       74.04740
H          3.96476      101.22050       74.93950
H          3.05015      100.18606       74.20072

Ca 1.0



