%chk=apoCaM-CA-Ng.loop2.water4.frame1354.chk
%nprocshared=20
%mem=10GB
%nosave
#b3lyp/svp scf=(tight,noincore,xqc) Test 
#IOP(5/87=12) Density=Current Pop=(MK,readradii) iop(6/33=2) iop(6/42=6)

apoCaM-CA-Ng.loop2.water4.frame1354 

   -2  1 
C         67.08738       60.17461       72.57131
C         67.30426       60.61205       71.14911
O         68.15945       61.45792       70.93048
H         66.04651       60.39136       72.88635
H         67.29338       59.08664       72.66170
H         67.78062       60.71222       73.25375
N         66.61644       60.08123       70.09643
C         65.58728       59.04292       70.20541
C         64.25446       59.42168       69.53818
O         63.30022       58.67114       69.68954
C         66.13435       57.73269       69.59603
C         66.40399       57.82709       68.11393
O         66.17523       58.85354       67.49426
O         66.84411       56.76701       67.42363
H         66.89443       60.40958       69.16033
H         65.36340       58.84347       71.27263
H         65.39162       56.92157       69.76051
H         67.07227       57.45113       70.12024
N         64.11586       60.54148       68.76845
C         62.86768       60.94754       68.12042
C         62.36048       60.02363       66.99983
O         61.33518       60.37721       66.43137
C         63.05535       62.35610       67.52403
H         64.92242       61.17158       68.66533
H         62.07735       61.02616       68.89948
H         63.37197       63.06893       68.31525
H         63.83052       62.34010       66.72682
H         62.10606       62.73680       67.08933
N         62.96771       58.85657       66.60652
C         62.47096       58.08681       65.45498
C         62.97281       56.64001       65.39899
O         63.71863       56.20592       66.26389
C         62.76886       58.85959       64.13888
C         64.24043       59.07788       63.87257
O         64.68587       60.21369       63.83447
O         65.06167       58.03939       63.61223
H         63.78433       58.51195       67.11886
H         61.36790       57.98103       65.56162
H         62.26971       59.84976       64.19128
H         62.32674       58.33965       63.26513
N         62.51878       55.81761       64.40446
C         62.83225       54.40021       64.26398
C         64.28204       54.09514       63.94998
O         65.11189       54.98814       63.92797
H         61.85137       56.20174       63.72020
H         62.22972       53.99952       63.42022
H         62.53127       53.85714       65.18610
N         64.64416       52.80812       63.67852
C         66.01879       52.36453       63.47209
C         66.23500       51.83055       62.06640
O         65.56445       50.88622       61.66898
C         66.32847       51.23756       64.48316
C         67.68889       50.61667       64.25578
N         67.79700       49.31108       63.90693
O         68.69544       51.29987       64.36822
H         63.90214       52.09120       63.64558
H         66.73591       53.19644       63.65118
H         65.55224       50.44738       64.37898
H         66.26916       51.62907       65.51952
H         66.95888       48.72106       63.79401
H         68.72012       48.88642       63.73486
N         67.25276       52.32419       61.30381
C         67.67402       51.66643       60.07442
C         68.88366       52.32307       59.42028
O         69.28067       53.40156       59.83952
H         67.79541       53.12142       61.66814
H         66.83826       51.63461       59.34202
H         67.95831       50.63038       60.35779
N         69.55711       51.74691       58.37952
C         69.25003       50.43875       57.80426
C         70.40520       49.45215       57.97562
O         70.22578       48.30946       57.57519
C         68.91019       50.58418       56.30139
C         67.68855       51.47707       56.07234
O         70.01556       51.11307       55.61147
H         70.35445       52.26657       57.97886
H         68.37237       49.98128       58.30051
H         68.66325       49.56751       55.90961
H         70.01968       50.70624       54.70572
H         66.80509       51.06090       56.60134
H         67.87828       52.50872       56.43641
H         67.45873       51.52339       54.98651
N         71.61191       49.80002       58.52642
C         72.75338       48.88700       58.59917
C         73.20982       48.74858       60.05750
O         73.51623       49.77459       60.64989
C         73.93465       49.43883       57.73911
C         73.52544       49.86041       56.30101
C         75.10044       48.43058       57.70047
C         72.98870       48.74059       55.40712
H         71.76305       50.75977       58.86779
H         72.47321       47.91124       58.16749
H         74.30867       50.37004       58.22150
H         74.41151       50.30564       55.79693
H         72.75554       50.65897       56.36204
H         74.78548       47.47153       57.23876
H         75.95266       48.84521       57.12155
H         75.46213       48.20601       58.72363
H         72.72626       49.16591       54.41507
H         73.75103       47.95200       55.24874
H         72.07575       48.28778       55.83563
N         73.33933       47.55897       60.72471
C         73.01610       46.24722       60.18269
C         73.83423       45.13454       60.84353
O         73.73320       44.93423       62.04521
C         71.49974       45.97855       60.31336
C         71.00363       46.01129       61.73763
O         70.44923       44.91214       62.28333
O         71.08408       47.03470       62.39909
H         73.67753       47.59702       61.69861
H         73.28122       46.21596       59.10921
H         71.27768       44.98233       59.87248
H         70.93415       46.73941       59.73646
N         74.62059       44.32648       60.06900
C         75.29257       43.11799       60.54244
C         76.77095       43.11485       60.17760
O         77.07358       43.29495       59.00700
C         74.67016       41.90536       59.82024
C         73.24331       41.65427       60.22288
C         72.94948       41.21339       61.52409
C         72.19919       41.82439       59.29959
C         71.63025       40.93945       61.89271
C         70.87955       41.55892       59.67571
C         70.59568       41.11281       60.96960
H         74.67576       44.51993       59.05770
H         75.15416       42.97590       61.63059
H         75.24571       40.97977       60.04598
H         74.73987       42.07565       58.72194
H         73.74385       41.06417       62.24553
H         72.40509       42.16329       58.29181
H         71.41170       40.58688       62.89225
H         70.07786       41.69310       58.96159
H         69.57478       40.89798       61.25594
N         77.75210       42.79413       61.08201
C         77.56054       42.50775       62.49680
C         77.10810       43.72544       63.27220
O         76.31585       43.59327       64.19266
C         78.95605       42.07860       62.97438
C         79.53648       41.46320       61.71794
C         79.11319       42.49689       60.68163
H         76.86125       41.64724       62.60694
H         79.58078       42.97430       63.19803
H         78.94783       41.42434       63.87317
H         80.62799       41.26320       61.75537
H         78.99937       40.50769       61.51184
H         79.72971       43.41786       60.78400
H         79.20189       42.07942       59.65577
N         77.57911       44.95885       62.92733
C         77.22287       46.17464       63.64119
C         77.91027       46.15041       65.00278
O         79.13331       46.11181       65.00525
C         77.69599       47.42285       62.85567
C         77.00340       47.54890       61.48769
C         77.48682       48.76129       60.74619
O         78.02555       48.64052       59.65735
O         77.31582       49.98967       61.27094
H         78.20944       45.03292       62.11606
H         76.12281       46.24328       63.69078
H         78.79736       47.37690       62.70393
H         77.46003       48.33178       63.45276
H         75.91273       47.64006       61.63719
H         77.19283       46.64605       60.86869
N         77.26998       46.15950       66.21010
C         75.83981       46.17371       66.44288
H         75.22401       46.17044       65.53189
H         75.56477       45.27541       67.03455
H         75.57756       47.07741       67.03113
H         77.85848       46.14550       67.05801
Ca        66.17808       57.05590       65.30439
O         68.89126       55.35179       65.65653
H         69.79297       55.73151       65.80917
H         69.01518       54.37280       65.73703
O         65.75027       53.95644       66.90310
H         66.42572       53.38645       67.34880
H         65.09192       54.16293       67.61301
O         67.94795       57.02174       62.74345
H         67.79857       56.23040       62.16763
H         67.49418       57.76377       62.27005
O         68.75239       58.75339       65.32891
H         68.74585       59.35739       66.11334
H         68.74836       59.36052       64.54678

Ca 1.0



