%chk=apoCaM-CA-Ng.loop2.water3.frame21.chk
%nprocshared=20
%mem=10GB
%nosave
#b3lyp/svp scf=(tight,noincore,xqc) Test 
#IOP(5/87=12) Density=Current Pop=(MK,readradii) iop(6/33=2) iop(6/42=6)

apoCaM-CA-Ng.loop2.water3.frame21 

   -2  1 
C         52.70196       35.34523       41.55767
C         51.58772       35.54763       42.54414
O         51.66204       35.03874       43.65328
H         53.50926       34.71650       41.98925
H         52.30600       34.84189       40.64961
H         53.12879       36.32800       41.26583
N         50.50511       36.29109       42.18936
C         49.35788       36.52422       43.06194
C         48.67098       35.21782       43.41497
O         48.39387       34.98739       44.58189
C         48.34967       37.45983       42.36329
C         47.17767       37.77373       43.25440
O         47.37327       38.38280       44.43995
O         46.04578       37.47422       42.90966
H         50.49922       36.70729       41.24403
H         49.69945       37.03615       43.99025
H         47.99156       36.99050       41.41990
H         48.85319       38.41625       42.10528
N         48.37798       34.31537       42.43804
C         47.67778       33.05337       42.63845
C         48.29102       32.19527       43.73867
O         47.56242       31.61899       44.53550
C         46.18077       33.30607       42.84857
H         48.68970       34.52283       41.47645
H         47.77379       32.47978       41.68915
H         45.63036       32.34252       42.90164
H         46.00551       33.87975       43.78240
H         45.77783       33.88618       41.99060
N         49.64264       32.04908       43.81802
C         50.33645       31.13176       44.71748
C         50.12222       31.36709       46.21864
O         50.61830       30.55977       46.99099
C         49.96593       29.67232       44.33673
C         50.99703       28.72543       44.87552
O         52.26265       28.92046       44.47344
O         50.71426       27.83595       45.66183
H         50.22864       32.57502       43.15144
H         51.42349       31.26493       44.51670
H         49.99937       29.56313       43.23083
H         48.94161       29.41456       44.68268
N         49.38960       32.39858       46.72873
C         49.06834       32.47573       48.14686
C         50.25292       32.66068       49.07754
O         50.04887       32.48532       50.27083
H         48.97500       33.10134       46.10733
H         48.55643       31.52604       48.42050
H         48.34762       33.30023       48.33635
N         51.48858       33.06212       48.64924
C         52.60648       33.25409       49.57325
C         52.78049       34.72883       49.88086
O         53.02262       35.52050       48.98266
C         53.91712       32.64931       49.03551
C         53.84183       31.14833       48.91326
N         54.62150       30.35279       49.68283
O         53.07225       30.64293       48.11360
H         51.62475       33.31035       47.65800
H         52.39832       32.73717       50.53650
H         54.72539       32.90549       49.75547
H         54.18658       33.09500       48.05323
H         55.27844       30.75340       50.36801
H         54.56352       29.32730       49.60147
N         52.65127       35.15497       51.16854
C         52.75399       36.53391       51.60820
C         54.13866       37.11569       51.44833
O         55.11115       36.45207       51.78059
H         52.43579       34.45969       51.89975
H         52.54177       36.54881       52.69966
H         51.98095       37.16238       51.11635
N         54.28422       38.42220       51.08124
C         55.57361       39.11410       51.10077
C         56.50170       38.67216       49.97062
O         57.67724       39.00343       50.02347
C         55.33255       40.64812       51.09875
C         56.60083       41.48491       51.29494
O         54.69493       41.03060       49.90624
H         53.42776       38.96923       50.90138
H         56.06084       38.86550       52.07109
H         54.66782       40.85556       51.97313
H         54.08947       41.78557       50.12922
H         57.12029       41.18491       52.22967
H         57.29261       41.38239       50.43524
H         56.32547       42.55790       51.37575
N         56.04772       37.94071       48.91208
C         56.90289       37.49074       47.81127
C         56.88837       35.96900       47.74489
O         56.19871       35.35915       48.55187
C         56.51366       38.18529       46.46063
C         55.23652       37.68832       45.72115
C         56.49881       39.71778       46.62387
C         53.88317       37.91183       46.39504
H         55.05484       37.69617       48.88449
H         57.95516       37.79161       48.00833
H         57.34067       37.95994       45.75146
H         55.33783       36.60807       45.49097
H         55.19710       38.22194       44.74517
H         57.47020       40.07268       47.02894
H         56.33531       40.21308       45.64277
H         55.69530       40.04318       47.31722
H         53.07874       37.59755       45.69638
H         53.77077       37.28262       47.29000
H         53.72271       38.98066       46.64404
N         57.59443       35.28016       46.79636
C         57.48049       33.82891       46.65688
C         58.84162       33.12470       46.52426
O         58.87000       31.99209       46.06453
C         56.50063       33.55019       45.49216
C         55.95165       32.14385       45.44789
O         55.12182       31.85356       44.60159
O         56.31653       31.21455       46.35153
H         58.12539       35.80248       46.08300
H         56.98863       33.39757       47.55490
H         56.96888       33.82546       44.52311
H         55.60736       34.19723       45.64117
N         60.00269       33.68443       46.98617
C         61.28345       32.96474       46.98240
C         61.72127       32.62440       45.55935
O         61.87982       33.55037       44.77754
C         62.39620       33.81207       47.64617
C         63.72277       33.07818       47.64032
C         63.91142       31.92580       48.42380
C         64.77485       33.52717       46.82220
C         65.12480       31.23029       48.37830
C         65.98413       32.82659       46.77623
C         66.15873       31.67823       47.55211
H         59.96768       34.62420       47.40835
H         61.15129       32.04708       47.59009
H         62.12566       34.07665       48.69139
H         62.48735       34.76235       47.07526
H         63.11721       31.56076       49.06267
H         64.65339       34.40700       46.20334
H         65.26209       30.34000       48.97837
H         66.78380       33.17063       46.13320
H         67.09421       31.13518       47.51147
N         61.99114       31.34212       45.14985
C         62.40389       30.98410       43.79860
C         61.41367       31.44762       42.75230
O         61.80834       32.05473       41.76716
C         62.43890       29.44572       43.82138
C         62.82982       29.16766       45.24936
C         61.95998       30.16941       46.00336
H         63.42253       31.39251       43.60998
H         61.41382       29.02520       43.70765
H         63.08560       28.98858       43.04218
H         62.71548       28.11344       45.57972
H         63.89746       29.46699       45.36689
H         60.90640       29.82950       46.10840
H         62.42485       30.31731       46.99418
N         60.08959       31.17629       42.92326
C         59.05387       31.49418       41.94650
C         58.88803       32.99316       41.71214
O         58.17713       33.35300       40.78383
C         57.70183       30.92847       42.42341
C         57.69721       29.39709       42.59877
C         56.39069       28.96039       43.18348
O         56.34392       28.31331       44.36637
O         55.34879       29.21128       42.59777
H         59.81885       30.69277       43.79126
H         59.33261       31.01443       40.98210
H         56.90272       31.20143       41.69853
H         57.46918       31.40614       43.39631
H         58.49913       29.05983       43.28517
H         57.85106       28.90656       41.61484
N         59.47741       33.92179       42.51717
C         59.35477       35.35194       42.32702
H         60.36716       35.78882       42.19428
H         58.74176       35.61247       41.43969
H         58.88669       35.80211       43.22763
H         60.02702       33.61692       43.32344
Ca        54.23712       28.08876       45.09252
O         56.60119       28.54862       47.81537
H         57.27986       27.90797       48.14464
H         56.83769       29.40307       48.25640
O         52.88046       27.56870       48.16068
H         52.68700       26.82981       47.53117
H         53.39659       27.14354       48.89080
O         54.90446       25.17266       45.34282
H         54.02247       25.36953       45.74939
H         55.55835       25.60035       45.95110

Ca 1.0



