%chk=apoCaM-CA-Ng.loop2.water2.frame815.chk
%nprocshared=20
%mem=10GB
%nosave
#b3lyp/svp scf=(tight,noincore,xqc) Test 
#IOP(5/87=12) Density=Current Pop=(MK,readradii) iop(6/33=2) iop(6/42=6)

apoCaM-CA-Ng.loop2.water2.frame815 

   -2  1 
C         82.19703      -22.80082       83.85014
C         83.55417      -22.61102       84.46264
O         84.45587      -23.37794       84.15589
H         81.48315      -22.02369       84.19721
H         82.27900      -22.72831       82.74515
H         81.79644      -23.79839       84.12373
N         83.77687      -21.59542       85.34308
C         85.07609      -21.33757       85.96019
C         86.09890      -20.76875       84.97546
O         87.20459      -20.48132       85.41496
C         84.91416      -20.36464       87.15357
C         84.04004      -20.90830       88.25923
O         83.83813      -20.16631       89.36390
O         83.52684      -22.01451       88.18128
H         82.97783      -20.99970       85.61121
H         85.48125      -22.28677       86.37830
H         84.49488      -19.39943       86.79647
H         85.91141      -20.16821       87.60483
N         85.83837      -20.60563       83.64110
C         86.82803      -20.09192       82.69957
C         86.18804      -19.12427       81.70039
O         84.96795      -19.03628       81.67453
C         87.43287      -21.29135       81.96162
H         84.94324      -20.92176       83.24984
H         87.62783      -19.56853       83.26310
H         86.64834      -21.82885       81.38612
H         88.23743      -20.99143       81.27140
H         87.87781      -21.99616       82.69564
N         86.90210      -18.36443       80.81416
C         88.35555      -18.21411       80.79718
C         88.72453      -16.75187       81.01787
O         87.84611      -15.89975       81.01355
C         88.97687      -18.79635       79.50454
C         88.45832      -18.20908       78.22354
O         89.22887      -17.67564       77.44662
O         87.16454      -18.34811       77.87933
H         86.36151      -17.79440       80.14487
H         88.80769      -18.76828       81.63912
H         88.77568      -19.88377       79.45150
H         90.08061      -18.66682       79.55190
N         90.01133      -16.40473       81.30618
C         90.41759      -15.04568       81.63681
C         91.79361      -14.74027       81.08218
O         92.70053      -14.57340       81.88521
H         90.70871      -17.15701       81.41430
H         90.48759      -14.99054       82.74563
H         89.67088      -14.28550       81.32991
N         92.08757      -14.68126       79.75122
C         91.11862      -14.80441       78.67154
C         90.30901      -13.51591       78.57479
O         90.88210      -12.47613       78.27839
C         91.88214      -15.09693       77.35338
C         91.01406      -15.37528       76.15802
N         91.57530      -15.66714       74.96322
O         89.80316      -15.35424       76.26064
H         93.08103      -14.55248       79.49916
H         90.47063      -15.68322       78.87188
H         92.50804      -16.00236       77.51313
H         92.55515      -14.24519       77.11511
H         92.59943      -15.69945       74.85771
H         90.98411      -15.86541       74.14249
N         88.97750      -13.50184       78.86309
C         88.17838      -12.28513       78.88168
C         87.74727      -11.80011       77.51246
O         87.07283      -10.78143       77.46072
H         88.53156      -14.37227       79.17582
H         88.72469      -11.48888       79.43384
H         87.23939      -12.48794       79.44106
N         88.04352      -12.48487       76.37041
C         87.55955      -12.10089       75.04701
C         86.69527      -13.24004       74.45547
O         86.13816      -14.03727       75.45176
C         88.76385      -11.82562       74.11525
C         89.61051      -10.65975       74.62697
O         89.58942      -12.96042       74.02962
H         88.60336      -13.33859       76.43263
H         86.92738      -11.18827       75.11657
H         88.40465      -11.54375       73.09883
H         89.14918      -13.59523       73.40917
H         90.02233      -10.88314       75.63483
H         90.46276      -10.48594       73.93599
H         88.99997       -9.73450       74.68032
N         85.66380      -12.76725       73.52696
C         84.87611      -13.84921       72.88762
C         85.65935      -14.50240       71.74629
O         86.09785      -13.79223       70.85176
C         83.52491      -13.24774       72.39748
C         82.61704      -14.26612       71.65477
C         82.75976      -12.61036       73.57677
C         82.16309      -15.46818       72.48999
H         86.06917      -12.12582       72.80650
H         84.61581      -14.62400       73.64018
H         83.74935      -12.43526       71.67089
H         83.14769      -14.63903       70.75407
H         81.70739      -13.73617       71.29665
H         82.53894      -13.35936       74.36617
H         83.35453      -11.79736       74.04267
H         81.80412      -12.16707       73.22539
H         81.56585      -15.15324       73.36871
H         81.52047      -16.12244       71.86649
H         83.03012      -16.06278       72.83247
N         85.83315      -15.86134       71.69782
C         86.57336      -16.55195       70.63712
C         85.66808      -17.42114       69.77430
O         86.18626      -18.04389       68.85712
C         87.67680      -17.45558       71.23401
C         88.49516      -16.74313       72.25729
O         89.09480      -15.71747       71.97769
O         88.44692      -17.18349       73.52789
H         85.40841      -16.43986       72.43439
H         87.05791      -15.80626       69.96786
H         88.33468      -17.84363       70.42543
H         87.19602      -18.32242       71.73868
N         84.31554      -17.49293       69.96952
C         83.43657      -18.25835       69.09628
C         82.37832      -19.02680       69.88924
O         81.55607      -18.38217       70.52463
C         82.74315      -17.26979       68.13873
C         81.77711      -17.95722       67.20635
C         80.40991      -17.63710       67.25288
C         82.22674      -18.92480       66.29170
C         79.50716      -18.27802       66.40156
C         81.31965      -19.56457       65.44263
C         79.96103      -19.24179       65.49771
H         83.87383      -16.91318       70.69306
H         84.03219      -18.95326       68.47247
H         83.51090      -16.73639       67.53692
H         82.20928      -16.50459       68.74617
H         80.04123      -16.89551       67.95106
H         83.27603      -19.18594       66.23691
H         78.45533      -18.02765       66.44497
H         81.67037      -20.31120       64.74236
H         79.25975      -19.73790       64.84019
N         82.26980      -20.39331       69.84764
C         81.12459      -21.12715       70.37438
C         81.04619      -21.19081       71.88987
O         80.09780      -21.79090       72.37887
C         81.26158      -22.50816       69.72370
C         82.76203      -22.66857       69.64123
C         83.19524      -21.28016       69.17329
H         80.17101      -20.67998       70.01388
H         80.70223      -23.33093       70.21887
H         80.89909      -22.43221       68.67207
H         83.13337      -22.82743       70.67960
H         83.12133      -23.50207       69.00124
H         84.25252      -21.11424       69.47377
H         83.07312      -21.15407       68.07545
N         81.95270      -20.58014       72.70627
C         81.80343      -20.57967       74.16106
C         80.54179      -19.85613       74.63613
O         80.24968      -19.93361       75.82217
C         83.04002      -19.96693       74.85413
C         83.26740      -18.48525       74.50764
C         84.45141      -17.95976       75.25575
O         84.44103      -17.92101       76.60119
O         85.43131      -17.56827       74.64904
H         82.77231      -20.12469       72.28589
H         81.73337      -21.64160       74.48757
H         83.94165      -20.55041       74.56417
H         82.91283      -20.06653       75.95532
H         82.38222      -17.87184       74.77928
H         83.44682      -18.37295       73.41816
N         79.75593      -19.12130       73.79620
C         78.56347      -18.44578       74.25936
H         77.84114      -19.18652       74.66379
H         78.82519      -17.71062       75.04965
H         78.08255      -17.90547       73.41616
H         80.00054      -19.01530       72.80284
Ca        87.49683      -15.75117       74.94897
O         85.97858      -15.43782       77.89894
H         85.29465      -15.85982       78.47604
H         86.84217      -15.72542       78.28517
O         87.70221      -19.74837       74.83181
H         87.38049      -20.16981       73.99554
H         87.00022      -19.95317       75.49910

Ca 1.0



