%chk=apoCaM-CA-Ng.loop4.water5.frame791.chk
%nprocshared=20
%mem=10GB
%nosave
#b3lyp/svp scf=(tight,noincore,xqc) Test 
#IOP(5/87=12) Density=Current Pop=(MK,readradii) iop(6/33=2) iop(6/42=6)

apoCaM-CA-Ng.loop4.water5.frame791 

   -3  1 
C        -19.10020       -5.14539       -1.51515
C        -20.57098       -5.43295       -1.47194
O        -21.11314       -5.84515       -2.48508
H        -18.54802       -6.07309       -1.77314
H        -18.89925       -4.37566       -2.29088
H        -18.73063       -4.76792       -0.53910
N        -21.29287       -5.22582       -0.33136
C        -22.73690       -5.44029       -0.23223
C        -23.11708       -6.92091       -0.41450
O        -24.28067       -7.20771       -0.65921
C        -23.48487       -4.52595       -1.23194
C        -22.94615       -3.11576       -1.24175
O        -22.98101       -2.29705       -0.17163
O        -22.42349       -2.70208       -2.26022
H        -20.80767       -4.86662        0.50493
H        -23.06752       -5.12706        0.78309
H        -24.57382       -4.51683       -1.01292
H        -23.36529       -4.93592       -2.25799
N        -22.18574       -7.91432       -0.26241
C        -22.44075       -9.35144       -0.44449
C        -23.60410       -9.83490        0.42616
O        -23.60770       -9.51378        1.60564
C        -21.14982      -10.19809       -0.16601
C        -20.59628      -10.05426        1.27575
C        -20.08343       -9.90089       -1.23592
C        -19.49597      -11.06943        1.58841
H        -21.23610       -7.63228        0.00885
H        -22.69827       -9.51869       -1.50678
H        -21.41319      -11.26179       -0.28088
H        -21.39962      -10.26740        2.00548
H        -20.21959       -9.02756        1.46178
H        -19.20620      -10.56801       -1.13819
H        -20.51092      -10.10376       -2.23762
H        -19.73595       -8.84802       -1.19358
H        -19.87823      -12.10198        1.43149
H        -18.59869      -10.91020        0.95989
H        -19.19229      -10.96703        2.65051
N        -24.66339      -10.57063       -0.04229
C        -24.83826      -11.08481       -1.40250
C        -26.30155      -11.45131       -1.60105
O        -26.80242      -12.31564       -0.89367
C        -23.95457      -12.34042       -1.64816
C        -23.93142      -12.81658       -3.07535
O        -23.24094      -13.92831       -3.39552
O        -24.48474      -12.18294       -3.95572
H        -25.41683      -10.76433        0.63729
H        -24.58891      -10.28276       -2.12618
H        -24.30271      -13.16925       -0.99239
H        -22.90835      -12.14095       -1.40210
N        -27.05114      -10.80978       -2.53924
C        -28.47011      -11.06118       -2.74373
C        -28.77667      -11.58976       -4.12888
O        -29.94880      -11.73202       -4.44492
H        -26.60426      -10.09095       -3.13036
H        -29.00135      -10.09445       -2.60595
H        -28.87556      -11.78014       -2.00232
N        -27.78451      -11.87678       -5.01677
C        -28.00699      -12.26952       -6.39858
C        -27.35015      -13.60368       -6.74018
O        -28.02012      -14.43276       -7.34205
C        -27.56645      -11.11238       -7.32929
C        -26.24285      -10.45691       -6.99989
O        -26.22305       -9.15897       -6.64098
O        -25.19172      -11.06917       -7.05248
H        -26.80813      -11.74818       -4.73124
H        -29.09225      -12.40050       -6.61613
H        -28.33303      -10.31371       -7.21841
H        -27.59581      -11.44602       -8.38956
N        -26.05494      -13.89138       -6.42056
C        -25.37162      -15.07780       -6.91543
C        -24.88510      -14.87662       -8.34415
O        -24.33335      -15.80460       -8.91652
H        -25.50552      -13.22845       -5.86674
H        -26.03542      -15.96589       -6.82310
H        -24.47169      -15.27151       -6.29209
N        -25.01805      -13.66477       -8.96094
C        -24.58638      -13.32717      -10.30547
C        -23.07969      -13.39015      -10.50660
O        -22.64788      -13.37748      -11.65235
C        -25.44301      -14.03967      -11.37206
C        -26.93222      -13.68611      -11.15635
C        -27.79684      -14.07578      -12.32390
N        -28.85015      -14.90938      -12.16555
O        -27.56516      -13.59849      -13.42498
H        -25.46601      -12.89570       -8.46433
H        -24.80774      -12.24666      -10.46054
H        -25.29703      -15.14130      -11.36194
H        -25.12800      -13.65177      -12.36546
H        -27.03919      -12.58521      -11.04204
H        -27.29368      -14.16085      -10.21736
H        -29.07718      -15.30972      -11.24406
H        -29.45180      -15.14328      -12.96936
N        -22.21494      -13.30217       -9.44961
C        -20.76716      -13.15534       -9.60716
C        -20.22981      -11.86859       -8.96640
O        -19.04156      -11.62370       -9.10864
C        -20.01614      -14.38855       -9.02385
C        -20.23789      -14.56466       -7.51020
C        -20.40784      -15.67296       -9.76543
H        -22.59755      -13.30604       -8.49313
H        -20.50619      -13.09128      -10.68688
H        -18.92532      -14.23826       -9.18833
H        -21.30425      -14.76421       -7.27702
H        -19.63703      -15.42093       -7.13628
H        -19.91213      -13.65917       -6.95654
H        -19.81511      -16.53095       -9.38170
H        -21.48645      -15.89831       -9.62971
H        -20.19554      -15.56660      -10.85057
N        -21.00839      -11.03990       -8.19984
C        -20.45916       -9.92313       -7.43335
C        -21.25527       -8.64177       -7.62988
O        -22.47574       -8.68913       -7.62261
C        -20.52473      -10.28860       -5.93891
C        -19.86630       -9.22615       -5.09295
N        -20.58553       -8.50168       -4.20849
O        -18.67050       -9.00837       -5.22029
H        -22.00130      -11.25778       -8.05247
H        -19.38682       -9.75229       -7.67493
H        -19.99729      -11.24975       -5.75721
H        -21.58871      -10.42370       -5.64201
H        -21.59798       -8.65400       -4.09114
H        -20.12049       -7.78004       -3.64185
N        -20.60742       -7.43804       -7.63380
C        -21.30158       -6.15254       -7.54902
C        -20.29310       -5.01725       -7.57859
O        -19.37734       -5.02404       -6.76688
C        -22.08143       -6.03003       -6.21016
C        -22.83655       -4.72060       -6.13344
C        -22.46547       -3.73096       -5.20808
C        -23.91482       -4.47523       -7.00028
C        -23.15946       -2.51604       -5.16144
C        -24.61056       -3.26368       -6.94119
C        -24.23411       -2.28021       -6.02378
O        -24.90876       -1.11372       -5.97904
H        -19.57617       -7.44333       -7.62716
H        -22.00789       -6.06049       -8.40169
H        -21.35224       -6.10345       -5.37319
H        -22.81383       -6.85020       -6.07164
H        -21.63322       -3.89370       -4.53427
H        -24.21976       -5.22439       -7.71908
H        -22.87081       -1.74904       -4.45966
H        -25.44195       -3.08739       -7.61077
H        -24.67496       -0.40871       -5.35834
N        -20.45013       -3.96801       -8.43524
C        -19.55810       -2.81607       -8.43180
C        -20.33981       -1.59390       -7.97893
O        -21.20358       -1.15460       -8.72527
C        -18.96762       -2.59614       -9.83620
C        -18.11679       -3.79002      -10.28888
C        -17.59502       -3.57878      -11.68000
O        -16.26843       -3.53368      -11.90475
O        -18.37024       -3.46125      -12.61619
H        -21.25896       -3.95966       -9.07483
H        -18.71570       -2.99028       -7.74481
H        -18.33246       -1.68257       -9.83137
H        -19.80065       -2.44131      -10.55881
H        -18.72138       -4.72233      -10.28120
H        -17.26518       -3.91478       -9.58507
N        -20.17402       -1.00096       -6.75685
C        -19.30165       -1.48900       -5.69019
C        -17.82808       -1.33275       -6.00247
O        -17.39502       -0.24304       -6.34985
C        -19.65370       -0.84436       -4.33552
C        -19.43226        0.67243       -4.17372
C        -19.97216        1.04676       -2.82127
O        -21.28037        0.82647       -2.57735
O        -19.22769        1.42395       -1.93144
H        -20.79936       -0.20848       -6.54208
H        -19.53415       -2.56485       -5.52697
H        -19.06829       -1.36212       -3.54151
H        -20.72332       -1.07081       -4.15276
H        -19.97253        1.25278       -4.94996
H        -18.34763        0.90529       -4.23916
N        -16.99228       -2.40019       -5.85228
C        -15.56613       -2.34917       -6.09423
H        -15.02775       -2.57645       -5.14950
H        -15.29701       -3.11460       -6.85141
H        -15.23340       -1.35571       -6.45934
H        -17.37734       -3.29856       -5.52283
Ca       -22.07880       -0.29816       -0.77740
O        -19.96920        0.88751        0.91363
H        -19.16167        1.24124        1.36252
H        -20.38710        1.68033        0.49165
O        -22.98768        0.92003        1.97192
H        -23.79638        0.88146        2.54156
H        -22.26765        1.21806        2.58242
O        -24.36664        0.42442       -2.74275
H        -25.35498        0.37230       -2.72823
H        -24.16782        1.22536       -3.28999
O        -23.19083        2.71960       -0.89371
H        -24.07522        2.77045       -0.45137
H        -22.99597        3.65003       -1.17030
O        -25.43853       -0.09484        0.25273
H        -25.18899       -0.84954        0.84304
H        -26.18370       -0.44595       -0.29637

Ca 1.0



