%chk=apoCaM-CA-Ng.loop4.water4.frame838.chk
%nprocshared=20
%mem=10GB
%nosave
#b3lyp/svp scf=(tight,noincore,xqc) Test 
#IOP(5/87=12) Density=Current Pop=(MK,readradii) iop(6/33=2) iop(6/42=6)

apoCaM-CA-Ng.loop4.water4.frame838 

   -3  1 
C         56.08978      -22.76024       66.62241
C         56.24381      -23.87401       65.63072
O         57.30625      -24.47222       65.56309
H         55.26719      -23.00932       67.32700
H         57.02380      -22.61909       67.20713
H         55.84306      -21.81605       66.09599
N         55.19322      -24.22264       64.83756
C         55.19533      -25.34879       63.90809
C         55.39315      -26.64849       64.67033
O         56.24315      -27.45640       64.32067
C         56.20781      -25.14601       62.75476
C         55.88706      -23.94623       61.90386
O         56.62024      -23.65371       60.97307
O         54.78474      -23.20645       62.13453
H         54.31555      -23.68719       64.92863
H         54.18088      -25.41847       63.45367
H         56.19417      -26.03514       62.08821
H         57.23442      -25.03889       63.16154
N         54.60210      -26.90035       65.74986
C         54.63545      -28.14394       66.51376
C         54.15228      -29.28849       65.62151
O         53.08840      -29.14298       65.03666
C         53.81695      -28.01387       67.84761
C         52.32483      -27.62261       67.67153
C         54.56068      -27.03871       68.78708
C         51.52991      -27.72665       68.97673
H         53.94551      -26.16005       66.03067
H         55.68218      -28.33457       66.82252
H         53.81438      -29.00176       68.34327
H         51.83998      -28.31929       66.96076
H         52.21984      -26.59105       67.27849
H         54.58369      -26.01223       68.36430
H         54.10297      -27.00281       69.79386
H         55.60876      -27.37835       68.93640
H         50.46569      -27.47993       68.78263
H         51.58469      -28.76281       69.37485
H         51.90161      -27.02035       69.74511
N         54.86112      -30.43908       65.39149
C         56.09133      -30.84634       66.06988
C         56.67803      -32.07536       65.38291
O         56.03665      -33.11719       65.36209
C         55.77497      -31.16788       67.55721
C         56.90408      -31.70209       68.38665
O         56.69345      -31.99024       69.68493
O         58.00460      -31.88246       67.90794
H         54.46743      -31.08947       64.69199
H         56.84327      -30.03132       65.99928
H         54.94919      -31.91055       67.59781
H         55.45581      -30.25516       68.06824
N         57.91591      -32.01101       64.81101
C         58.58036      -33.13794       64.17179
C         59.92448      -33.46219       64.80686
O         60.60610      -34.33399       64.28749
H         58.42116      -31.11124       64.81969
H         58.75870      -32.86668       63.10871
H         57.95001      -34.05193       64.18928
N         60.38531      -32.79449       65.90583
C         61.70804      -32.97703       66.48976
C         61.64785      -33.46592       67.93147
O         62.32479      -34.43976       68.23495
C         62.52765      -31.67341       66.32563
C         61.84850      -30.39151       66.75962
O         61.60166      -29.53291       65.92791
O         61.53792      -30.15408       68.04515
H         59.79954      -32.07047       66.33210
H         62.28732      -33.74887       65.93284
H         62.73450      -31.57302       65.23709
H         63.50885      -31.77824       66.83810
N         60.87904      -32.86168       68.88115
C         60.91068      -33.25829       70.27897
C         62.14895      -32.73969       70.99087
O         62.31465      -33.05622       72.15976
H         60.25108      -32.09699       68.61939
H         60.82342      -34.36488       70.35661
H         60.03674      -32.81835       70.80740
N         63.02613      -31.88500       70.37529
C         64.21068      -31.30052       70.99542
C         63.89708      -30.36278       72.15435
O         64.83173      -29.88803       72.78566
C         65.25624      -32.39753       71.30996
C         65.71364      -33.11205       70.01372
C         66.47356      -32.22135       69.04382
N         66.80947      -32.68676       67.81981
O         66.79467      -31.08275       69.35321
H         62.86503      -31.60939       69.40284
H         64.67335      -30.61823       70.25780
H         64.82256      -33.14134       72.01040
H         66.15075      -31.95788       71.80131
H         64.81837      -33.52462       69.50061
H         66.37434      -33.96579       70.27293
H         66.54778      -33.63870       67.52732
H         67.31891      -32.08388       67.15570
N         62.62346      -29.94496       72.40710
C         62.27372      -28.91856       73.38427
C         61.64687      -27.69629       72.69875
O         61.24061      -26.78236       73.39961
C         61.30833      -29.51204       74.45403
C         59.98929      -30.03963       73.85582
C         62.00090      -30.62651       75.25125
H         61.85275      -30.31961       71.83885
H         63.17732      -28.55040       73.91907
H         61.05270      -28.70372       75.17468
H         59.31836      -30.39054       74.66838
H         59.46015      -29.23810       73.29929
H         60.16245      -30.89730       73.17297
H         61.32627      -31.00455       76.04886
H         62.27864      -31.47585       74.59170
H         62.92056      -30.23446       75.73541
N         61.50746      -27.62930       71.33807
C         60.75523      -26.59441       70.63842
C         61.61875      -25.92152       69.57872
O         62.24939      -26.61558       68.79702
C         59.53496      -27.28943       70.01224
C         58.63458      -26.35477       69.25212
N         58.32591      -26.60775       67.96032
O         58.15694      -25.37883       69.81128
H         61.87579      -28.38657       70.74843
H         60.36685      -25.82722       71.34359
H         58.93872      -27.73891       70.83619
H         59.87355      -28.11483       69.34875
H         58.70315      -27.43496       67.47508
H         57.68650      -25.98613       67.45072
N         61.66822      -24.55478       69.49829
C         62.49329      -23.82488       68.52075
C         62.41046      -22.31017       68.76085
O         61.58839      -21.88532       69.55898
C         62.02985      -24.13855       67.06550
C         63.11539      -23.91822       66.03902
C         62.99057      -22.95909       65.01949
C         64.26659      -24.72437       66.08382
C         64.00978      -22.80795       64.06865
C         65.27675      -24.57589       65.13311
C         65.15535      -23.61872       64.12329
O         66.14180      -23.49258       63.21249
H         61.11036      -24.03439       70.18753
H         63.53846      -24.15934       68.69109
H         61.10703      -23.55726       66.84066
H         61.75068      -25.20302       66.94656
H         62.11080      -22.33067       64.95892
H         64.37560      -25.48109       66.85100
H         63.90778      -22.06567       63.28712
H         66.15262      -25.21128       65.18016
H         66.10227      -22.84707       62.49305
N         63.22104      -21.42539       68.09901
C         63.07840      -19.98009       68.26985
C         62.77924      -19.33071       66.92639
O         63.69427      -19.18285       66.12948
C         64.30578      -19.35383       68.95204
C         64.45894      -19.89054       70.38423
C         65.59204      -19.22348       71.10384
O         65.35184      -18.51221       72.22242
O         66.73478      -19.33046       70.68936
H         63.94419      -21.77485       67.45567
H         62.24934      -19.76398       68.95701
H         64.15371      -18.25183       69.00967
H         65.22424      -19.55398       68.35788
H         64.63268      -20.98742       70.36680
H         63.51918      -19.69288       70.94710
N         61.51319      -18.96896       66.55200
C         60.32571      -19.24475       67.35977
C         60.24926      -18.35646       68.58793
O         61.00108      -17.39684       68.69999
C         59.03876      -19.12215       66.52490
C         58.99712      -20.19005       65.41582
C         57.75763      -20.10447       64.57462
O         57.58602      -20.97386       63.56468
O         56.91239      -19.24582       64.77382
H         61.39102      -18.57325       65.60582
H         60.38228      -20.30146       67.70073
H         58.97128      -18.09966       66.09033
H         58.15402      -19.28593       67.17852
H         59.03894      -21.20013       65.87916
H         59.87095      -20.07833       64.74046
N         59.38565      -18.68388       69.58975
C         59.28659      -17.95852       70.83868
H         58.24202      -17.61432       70.98288
H         59.55769      -18.63933       71.67391
H         59.96183      -17.07853       70.87343
H         58.79088      -19.51988       69.48372
Ca        55.84906      -20.61711       62.17978
O         53.92809      -21.11445       59.96887
H         53.23304      -20.92602       59.29032
H         54.48848      -21.82306       59.56327
O         56.95790      -20.39142       59.30418
H         57.85588      -20.51186       58.90546
H         56.53020      -19.69036       58.75103
O         56.03863      -17.59970       61.99740
H         56.44159      -17.31533       62.85578
H         55.06826      -17.65804       62.18636
O         59.13444      -19.69891       61.61793
H         59.26557      -18.83062       61.16207
H         59.77475      -20.31500       61.18169

Ca 1.0



