%chk=apoCaM-CA-Ng.loop1.water3.frame299.chk
%nprocshared=20
%mem=10GB
%nosave
#b3lyp/svp scf=(tight,noincore,xqc) Test 
#IOP(5/87=12) Density=Current Pop=(MK,readradii) iop(6/33=2) iop(6/42=6)

apoCaM-CA-Ng.loop1.water3.frame299 

   0  1 
C         52.77374       45.10673       37.23182
C         52.97728       46.44330       36.57938
O         53.96058       47.10661       36.87610
H         51.85196       44.60935       36.86064
H         53.63810       44.44866       37.00162
H         52.68971       45.23397       38.33004
N         52.09233       46.89362       35.64964
C         52.27320       48.14421       34.92331
C         52.01222       49.38611       35.78317
O         52.11232       50.46396       35.23676
C         51.32695       48.19911       33.69266
C         51.56682       47.10019       32.68655
O         51.35875       45.80962       33.00843
O         51.91815       47.38122       31.55122
H         51.29433       46.28770       35.40706
H         53.31178       48.18361       34.52422
H         51.50333       49.15726       33.16195
H         50.26454       48.17167       34.01983
N         51.64903       49.36221       37.09625
C         51.17950       50.56954       37.78754
C         52.12376       51.03887       38.88660
O         52.54438       50.19963       39.66990
C         49.76970       50.30005       38.34596
C         48.74165       50.20394       37.20508
C         47.32801       49.97611       37.74470
C         46.29264       50.06361       36.61502
N         44.94438       49.81464       37.12263
H         51.61595       48.46961       37.60791
H         51.07178       51.40013       37.08348
H         49.46298       51.14586       38.99571
H         49.77212       49.37850       38.96859
H         49.00632       49.38430       36.50174
H         48.75611       51.16383       36.64372
H         47.08706       50.75625       38.50000
H         47.28245       48.97780       38.23171
H         46.52998       49.32105       35.82153
H         46.33088       51.08152       36.16402
H         44.88065       48.84103       37.49917
H         44.70814       50.50096       37.87592
H         44.25875       49.92166       36.34060
N         52.45661       52.36584       39.09752
C         51.97416       53.54434       38.35301
C         50.45119       53.59795       38.29738
O         49.88915       53.47392       37.21759
C         52.62727       53.69224       36.95041
C         54.01949       54.26204       36.97826
O         54.61745       54.59819       38.13582
O         54.60127       54.46942       35.92515
H         53.05516       52.56813       39.91370
H         52.26690       54.47281       38.88843
H         52.05048       54.44277       36.37410
H         52.62045       52.74115       36.38725
N         49.68064       53.83856       39.39347
C         50.21132       54.19049       40.70582
C         49.10490       54.55828       41.68554
O         47.93804       54.36699       41.37246
H         48.66172       53.84873       39.23657
H         50.83772       55.09877       40.57296
H         50.83317       53.36918       41.12090
N         49.34993       55.16908       42.87903
C         50.66282       55.53908       43.39235
C         50.86064       57.03021       43.22226
O         49.94706       57.79849       43.49352
C         50.85368       55.09671       44.86105
C         49.92324       55.75069       45.85245
O         48.72012       55.55336       45.80716
O         50.42695       56.53154       46.82736
H         48.52459       55.47219       43.41590
H         51.46604       55.02404       42.82403
H         51.89730       55.34960       45.15314
H         50.74253       53.99374       44.93379
N         52.05012       57.51085       42.76911
C         52.27249       58.91285       42.48207
C         51.62181       59.27118       41.17190
O         50.78914       60.16513       41.12323
H         52.83696       56.85979       42.62444
H         53.36221       59.08708       42.34625
H         51.93221       59.54766       43.32986
N         52.01519       58.61355       40.04448
C         51.53674       58.93670       38.70206
C         50.05415       58.60168       38.55031
O         49.48020       57.97227       39.42895
C         52.39230       58.17220       37.64231
C         53.87975       58.54326       37.72673
O         51.95873       58.47356       36.34449
H         52.73030       57.87927       40.15591
H         51.67400       60.02938       38.54143
H         52.27156       57.07838       37.83368
H         52.26486       57.73314       35.75752
H         54.44954       57.97121       36.96427
H         54.01493       59.62826       37.53204
H         54.31459       58.30372       38.71345
N         49.37574       59.00655       37.43660
C         47.97479       58.68705       37.16369
C         47.82546       57.82197       35.90635
O         46.71119       57.39823       35.63144
C         47.11874       59.99141       37.06973
C         47.62944       60.95226       35.95884
C         47.07750       60.68851       38.44203
C         46.72304       62.16006       35.71299
H         49.88149       59.57309       36.74297
H         47.55952       58.06871       37.99015
H         46.07583       59.69069       36.82279
H         47.69026       60.39705       35.00224
H         48.64282       61.33264       36.20627
H         46.69010       59.98821       39.21225
H         48.08984       61.02935       38.74598
H         46.39404       61.56115       38.43115
H         46.66247       62.81512       36.60496
H         47.14235       62.76788       34.88270
H         45.70411       61.82581       35.42606
N         48.88693       57.51574       35.10078
C         48.81015       56.67584       33.90860
C         49.80196       55.52575       34.00501
O         50.90912       55.71641       34.48803
C         49.06166       57.49746       32.61849
C         50.40784       58.23612       32.57840
O         48.00762       58.40010       32.39655
H         49.80915       57.90198       35.31903
H         47.79070       56.24518       33.78989
H         49.05083       56.78102       31.76684
H         48.00815       59.05571       33.13908
H         50.51506       58.75197       31.60141
H         50.46472       59.00068       33.38112
H         51.25413       57.52824       32.68842
N         49.46779       54.29967       33.51638
C         50.34730       53.12984       33.57000
C         51.65766       53.32102       32.79520
O         51.85607       54.34701       32.15994
C         49.58821       51.87411       33.05128
C         49.25155       51.94055       31.55216
O         48.40912       51.70417       33.79661
H         48.52534       54.19388       33.11243
H         50.60383       52.94640       34.63591
H         50.23811       50.99207       33.20900
H         48.19208       50.73491       33.78596
H         48.58563       52.79589       31.31921
H         50.17687       52.03421       30.94521
H         48.73882       51.00524       31.24381
N         52.58244       52.31589       32.79149
C         53.81259       52.29047       32.02548
C         55.01610       52.12809       32.96383
O         55.86460       53.00799       32.98294
C         53.68390       51.10849       31.02793
C         54.74534       51.01530       29.92568
C         54.61022       52.16270       28.91413
C         55.50888       51.94422       27.69218
N         55.33618       53.02835       26.72542
H         52.37544       51.46607       33.30368
H         53.91088       53.24025       31.45952
H         52.69556       51.17470       30.52000
H         53.67334       50.15122       31.59115
H         54.55114       50.06344       29.38189
H         55.76907       50.96541       30.35476
H         54.86488       53.12882       29.39654
H         53.55698       52.20638       28.55674
H         55.23992       50.97946       27.20475
H         56.57289       51.89359       28.01047
H         55.94472       52.84892       25.89474
H         54.33969       53.07351       26.40881
H         55.60855       53.94072       27.15779
N         55.16655       51.00976       33.74349
C         56.32745       50.73686       34.59645
C         57.15235       49.63593       33.96451
O         56.64005       48.54476       33.75281
C         55.90965       50.26350       36.02512
C         56.03735       51.32307       37.13268
C         57.46875       51.74293       37.40984
O         58.39405       51.30119       36.74605
O         57.75110       52.58151       38.42715
H         54.45847       50.26535       33.67336
H         56.98513       51.62816       34.67350
H         56.56689       49.43305       36.37183
H         54.88439       49.83775       35.99461
H         55.63646       50.88428       38.07218
H         55.43159       52.19774       36.87130
N         58.46873       49.85513       33.68160
C         59.35489       48.84594       33.14286
H         60.19103       48.68131       33.85584
H         58.84176       47.87634       32.97713
H         59.77196       49.20107       32.17830
H         58.88281       50.77904       33.87849
Ca        56.23989       53.27301       39.95837
O         56.16113       57.32037       40.36005
H         56.52983       57.98165       39.72139
H         55.89216       57.85920       41.14588
O         59.06290       56.55260       39.78640
H         59.17802       57.39851       39.28442
H         59.97639       56.31213       40.08196
O         57.47488       56.19607       37.20401
H         56.82491       56.89080       36.93005
H         57.10189       55.35047       36.84947

Ca 1.0



