%chk=apoCaM-CA-Ng.loop3.water5.frame8.chk
%nprocshared=20
%mem=10GB
%nosave
#b3lyp/svp scf=(tight,noincore,xqc) Test 
#IOP(5/87=12) Density=Current Pop=(MK,readradii) iop(6/33=2) iop(6/42=6)

apoCaM-CA-Ng.loop3.water5.frame8 

   0  1 
C         78.45463       45.18915       97.61676
C         79.80342       45.71616       98.01558
O         80.74447       44.93912       98.03787
H         77.68757       45.99141       97.61506
H         78.51587       44.76757       96.58975
H         78.13702       44.38868       98.31599
N         79.97416       47.04137       98.30669
C         81.25818       47.68576       98.59171
C         81.88959       47.32067       99.93492
O         82.97651       47.82085      100.19339
C         82.24518       47.46502       97.42235
C         81.69008       48.00905       96.13371
O         81.39767       49.31943       96.02711
O         81.51133       47.27164       95.17743
H         79.15123       47.65968       98.25046
H         81.08237       48.78186       98.66010
H         82.49511       46.38976       97.30623
H         83.19502       47.99375       97.63514
N         81.29172       46.50229      100.85057
C         81.92544       46.13762      102.12314
C         82.31192       44.66972      102.14614
O         82.78608       44.18933      103.16655
C         81.01730       46.49131      103.32219
C         79.71187       45.67493      103.42372
C         78.98344       46.01939      104.73507
C         77.71465       45.18668      104.98406
N         76.66348       45.45848      104.00377
H         80.37501       46.08697      100.63125
H         82.87061       46.70394      102.26799
H         80.77911       47.57634      103.29018
H         81.60856       46.30339      104.24619
H         79.94980       44.58888      103.43662
H         79.06466       45.88915      102.54919
H         78.72809       47.10097      104.75540
H         79.67688       45.81184      105.58008
H         77.33040       45.44661      105.99592
H         77.96314       44.10199      104.98452
H         76.95796       45.15160      103.05017
H         75.80639       44.92275      104.27238
H         76.43261       46.47857      103.99909
N         82.13439       43.89611      101.04388
C         82.39401       42.47145      100.99679
C         83.87853       42.18198      101.26259
O         84.70643       43.05276      101.03394
C         81.86798       41.97702       99.62307
C         81.80309       40.50426       99.50728
O         82.94676       39.83781       99.50389
O         80.74152       39.91869       99.36914
H         81.76444       44.32985      100.19204
H         81.77866       41.99834      101.79392
H         82.49240       42.39101       98.79817
H         80.83025       42.35555       99.48934
N         84.27079       41.00501      101.83408
C         85.65637       40.65207      102.14169
C         86.47914       40.51681      100.88210
O         87.52630       41.13832      100.76787
H         83.54683       40.31492      102.07770
H         85.66308       39.66326      102.64808
H         86.10641       41.39469      102.83775
N         86.00881       39.74222       99.86530
C         86.63116       39.59238       98.55013
C         86.85781       40.93810       97.82226
O         87.51224       40.91915       96.78864
C         85.75077       38.67401       97.65562
C         85.69924       37.15830       97.99841
N         86.94768       36.48190       97.69047
O         85.32313       36.85820       99.31149
H         85.13354       39.24606      100.04697
H         87.63420       39.13214       98.68304
H         86.11826       38.72702       96.61500
H         84.71940       39.08810       97.63754
H         87.14629       36.61780       96.67440
H         86.77816       35.45811       97.82409
N         86.41101       42.13680       98.30740
C         86.77127       43.43173       97.74600
C         86.16271       43.66323       96.39057
O         84.94482       43.68818       96.30251
H         85.83798       42.15991       99.15059
H         87.87914       43.51673       97.71988
H         86.39414       44.23682       98.41451
N         86.96184       43.89420       95.30490
C         86.51570       44.09695       93.92512
C         86.11454       42.80013       93.23603
O         86.53723       42.62215       92.10601
C         85.46643       45.20735       93.73373
C         85.90256       46.55432       94.26449
C         87.09188       47.16784       93.82650
C         85.09194       47.22905       95.18706
C         87.45910       48.42752       94.31297
C         85.45318       48.49297       95.66138
C         86.63963       49.09580       95.22754
O         86.99677       50.31546       95.67799
H         87.98008       43.94275       95.46380
H         87.40909       44.43789       93.35448
H         84.50031       44.89928       94.18450
H         85.29068       45.32495       92.64154
H         87.73743       46.67991       93.10878
H         84.17255       46.77730       95.52458
H         88.37770       48.88860       93.97256
H         84.81162       49.00893       96.36148
H         86.44966       50.81213       96.30370
N         85.29991       41.87232       93.82462
C         84.97963       40.53795       93.32530
C         86.19801       39.61320       93.43007
O         86.10597       38.63714       94.16032
C         84.25604       40.48685       91.94024
C         82.95247       41.33653       91.89216
C         83.83929       39.02542       91.65534
C         83.16105       42.82828       91.64800
H         84.89225       42.07857       94.73636
H         84.23706       40.11456       94.04443
H         84.93639       40.80138       91.11982
H         82.35043       41.16757       92.81296
H         82.33619       41.00586       91.02761
H         83.35403       38.94801       90.65909
H         84.70266       38.33966       91.64570
H         83.12759       38.65882       92.42633
H         83.69623       42.97705       90.68487
H         82.17122       43.32653       91.57354
H         83.71114       43.31844       92.46248
N         87.36955       39.83749       92.76436
C         88.51834       38.94966       92.87907
C         88.23727       37.62408       92.20130
O         88.91467       36.65259       92.50659
C         89.76220       39.58833       92.23476
O         90.04210       40.81455       92.85982
H         87.47379       40.64549       92.15482
H         88.73583       38.79548       93.96073
H         89.56326       39.73721       91.14576
H         90.64375       38.92050       92.34540
H         90.37916       41.43091       92.15787
N         87.28894       37.53263       91.21799
C         87.00140       36.33391       90.44794
C         86.44406       35.18237       91.28112
O         86.38521       34.08203       90.75451
C         88.23947       35.93152       89.62989
H         86.77354       38.37905       90.94197
H         86.21885       36.57651       89.69471
H         87.99352       35.08972       88.94911
H         88.55834       36.79148       89.00023
H         89.08897       35.62748       90.27214
N         85.95948       35.35758       92.55295
C         85.42242       34.25128       93.34984
C         83.95772       34.45428       93.70393
O         83.41790       35.52605       93.47184
C         86.25012       34.11006       94.62479
H         85.95939       36.29598       92.97396
H         85.48970       33.30115       92.77980
H         87.31667       33.94451       94.36405
H         86.16937       35.03828       95.22758
H         85.89586       33.25449       95.23641
N         83.23920       33.41165       94.23531
C         81.82379       33.48665       94.60145
C         80.92824       33.88047       93.43108
O         79.77485       34.21546       93.66695
C         81.62847       34.38349       95.84639
C         82.25104       33.71739       97.08762
C         82.05190       34.52604       98.33398
O         80.92840       34.81806       98.71293
O         83.11784       34.88567       99.07064
H         83.71160       32.50580       94.36842
H         81.46562       32.47742       94.90624
H         80.54114       34.49700       96.05369
H         82.05547       35.39022       95.67107
H         83.33827       33.55241       96.93045
H         81.76515       32.72964       97.24848
N         81.35513       33.78022       92.13788
C         80.52594       34.10619       90.99582
H         79.52428       34.48422       91.28927
H         81.03099       34.88651       90.38994
H         80.38896       33.19791       90.37213
H         82.30037       33.42930       91.93061
Ca        83.23736       37.65935       99.49605
O         81.56626       38.56852      102.59467
H         81.95156       38.95015      103.42302
H         80.82508       37.99371      102.91045
O         81.58474       35.19893      102.00682
H         80.82188       35.40432      102.60370
H         81.52156       34.22297      101.85255
O         79.58702       37.35694      100.41705
H         78.81281       37.96039      100.28749
H         79.22848       36.60670      100.95393
O         84.67326       36.91227      102.26562
H         84.70840       37.09637      103.23745
H         85.62277       36.84748      101.99227
O         81.95578       37.71406       96.77658
H         82.84722       37.66811       96.34786
H         81.92514       38.61324       97.18692

Ca 1.0



