%chk=apoCaM-CA-Ng.loop1.water3.frame1454.chk
%nprocshared=20
%mem=10GB
%nosave
#b3lyp/svp scf=(tight,noincore,xqc) Test 
#IOP(5/87=12) Density=Current Pop=(MK,readradii) iop(6/33=2) iop(6/42=6)

apoCaM-CA-Ng.loop1.water3.frame1454 

   0  1 
C         38.24686       88.12181      118.35723
C         38.36884       89.56268      117.95978
O         38.02165       89.88663      116.83366
H         38.84234       87.49797      117.65676
H         38.62546       87.95112      119.38637
H         37.18368       87.80768      118.30773
N         38.86493       90.48642      118.83335
C         39.07919       91.88765      118.48303
C         40.55461       92.22392      118.61382
O         40.91635       93.26090      119.15341
C         38.16236       92.79193      119.33306
C         38.32955       92.57423      120.81757
O         37.28886       92.13318      121.54915
O         39.39856       92.78731      121.36654
H         39.13598       90.17785      119.77949
H         38.82049       92.05493      117.42179
H         37.10926       92.55773      119.06554
H         38.34417       93.85992      119.08484
N         41.47370       91.33177      118.16496
C         42.90738       91.50707      118.33369
C         43.46495       92.58728      117.41435
O         44.17281       93.44068      117.93048
C         43.66248       90.16012      118.26159
C         43.07045       89.18193      119.30587
C         43.89574       87.91185      119.51091
C         43.17433       86.98883      120.51034
N         43.95980       85.79123      120.79687
H         41.12912       90.44729      117.76459
H         43.09262       91.83606      119.38358
H         44.72782       90.35825      118.51650
H         43.62047       89.71055      117.24709
H         42.04595       88.88800      118.99568
H         43.00177       89.69217      120.29294
H         44.89395       88.19314      119.91305
H         44.02946       87.37992      118.54510
H         42.18854       86.68907      120.08721
H         42.98879       87.53396      121.46347
H         44.86832       86.05969      121.23974
H         43.42558       85.18742      121.46344
H         44.13489       85.25483      119.91692
N         43.16850       92.71946      116.08355
C         42.25911       91.87862      115.30532
C         40.92511       92.57146      115.11705
O         40.78996       93.73720      115.46037
C         42.90353       91.44072      113.97764
C         43.63863       92.53498      113.23962
O         43.06227       93.60569      112.63733
O         44.85539       92.45337      113.20656
H         43.54822       93.55601      115.61257
H         42.02901       90.94818      115.84719
H         42.17328       90.93782      113.32217
H         43.67004       90.68034      114.25387
N         39.84997       91.85868      114.67323
C         38.50234       92.40789      114.65721
C         38.17153       93.04908      113.34726
O         38.97256       92.98896      112.43454
H         39.96582       90.85110      114.48443
H         38.36632       93.13293      115.48534
H         37.77149       91.58397      114.80049
N         36.98380       93.69225      113.18009
C         36.55631       94.24434      111.89492
C         35.11151       93.82739      111.60131
O         34.44074       93.37018      112.51636
C         36.77721       95.77786      111.90543
C         38.24945       96.04027      112.08857
O         38.64810       96.65748      113.06164
O         39.12380       95.45330      111.23850
H         36.37329       93.81032      114.00324
H         37.19036       93.81632      111.09399
H         36.18820       96.24418      112.72614
H         36.46928       96.25362      110.96152
N         34.52995       93.91691      110.36527
C         35.20934       94.33023      109.15008
C         36.26242       93.33929      108.71934
O         36.28433       92.21715      109.20451
H         33.53735       93.64982      110.27656
H         35.64358       95.33287      109.27994
H         34.48288       94.41367      108.31408
N         37.19765       93.71972      107.80909
C         38.27238       92.85191      107.33659
C         39.08674       92.30817      108.50258
O         39.36551       93.03476      109.44516
C         39.19242       93.61024      106.33732
C         38.45116       94.02401      105.05421
O         40.31253       92.83069      105.99443
H         37.15396       94.69082      107.46567
H         37.83227       91.98809      106.79114
H         39.56914       94.53333      106.83101
H         39.99317       92.03471      105.49523
H         39.14591       94.56697      104.37911
H         38.07399       93.12425      104.52203
H         37.59168       94.68977      105.26844
N         39.52941       91.01829      108.45707
C         40.35911       90.35740      109.45781
C         41.67337       91.10609      109.62558
O         41.77798       91.96007      110.49534
C         39.64631       90.13090      110.82290
C         38.20781       89.58967      110.65597
C         40.48795       89.17374      111.69551
C         37.40569       89.61097      111.96141
H         39.29083       90.45636      107.62596
H         40.58018       89.34194      109.05753
H         39.57569       91.10572      111.31547
H         38.23032       88.56374      110.23229
H         37.65321       90.23896      109.95253
H         40.07735       89.07914      112.71990
H         40.52337       88.16490      111.23192
H         41.53245       89.52507      111.78626
H         37.34047       90.64787      112.34949
H         36.37264       89.25623      111.76762
H         37.85263       88.96109      112.73876
N         42.73831       90.79109      108.84593
C         44.05941       91.38199      109.01544
C         44.59822       92.02052      107.74293
O         45.74408       92.43687      107.79346
C         45.03163       90.32344      109.60362
C         45.04644       88.99438      108.84843
O         44.67261       90.05990      110.93521
H         42.62074       90.05500      108.13419
H         44.04546       92.21183      109.75873
H         46.07281       90.72914      109.57988
H         45.20479       90.67736      111.50130
H         44.05762       88.49340      108.92676
H         45.30514       89.14520      107.78146
H         45.79286       88.31738      109.31527
N         43.86242       92.18544      106.59600
C         44.40059       92.86146      105.40533
C         44.74902       94.31224      105.76240
O         43.86442       95.15592      105.79709
C         43.39910       92.76906      104.22185
C         43.98530       93.33014      102.92226
O         43.05897       91.42102      104.01412
H         42.89478       91.83251      106.56874
H         45.32220       92.31486      105.10463
H         42.48314       93.34625      104.49212
H         42.16755       91.40983      103.57514
H         44.89486       92.75998      102.63564
H         43.23923       93.23357      102.10390
H         44.24533       94.40281      103.03152
N         46.00538       94.60586      106.21397
C         46.41782       95.83398      106.89685
C         45.60275       96.13032      108.14945
O         44.52247       95.59844      108.32855
C         46.44986       97.07154      105.98369
C         47.54203       96.95737      104.91614
C         47.74171       98.30102      104.20524
C         48.96073       98.25703      103.27737
N         49.20550       99.56855      102.67912
H         46.71783       93.86268      106.16752
H         47.45397       95.65702      107.26392
H         46.71287       97.94564      106.62001
H         45.45592       97.27273      105.52817
H         47.29984       96.15135      104.18953
H         48.49642       96.70235      105.42761
H         47.92952       99.08523      104.97227
H         46.82632       98.57355      103.63596
H         48.80153       97.50062      102.47797
H         49.85769       97.96215      103.86798
H         48.39081       99.85306      102.08908
H         49.36346      100.28099      103.42947
H         50.06220       99.51767      102.08227
N         46.09208       96.99493      109.08209
C         45.33441       97.41310      110.25707
C         44.86853       96.23858      111.10368
O         43.66726       96.15037      111.31369
C         46.10805       98.43421      111.11660
C         46.38155       99.73984      110.35867
C         47.07154      100.73201      111.24718
O         48.16941      100.47928      111.71794
O         46.48242      101.91021      111.52515
H         47.03732       97.37835      108.93589
H         44.41760       97.93994      109.90433
H         47.06750       98.01676      111.46897
H         45.48670       98.67968      112.00745
H         45.41562      100.16783      110.01352
H         47.02160       99.55706      109.47108
N         45.68313       95.28243      111.63195
C         47.10998       95.16838      111.44614
H         47.64203       96.02077      111.89854
H         47.46966       94.25327      111.96614
H         47.35149       95.06384      110.36998
H         45.24420       94.55146      112.19483
Ca        41.10825       94.54136      111.91606
O         41.69013       96.39355      114.09979
H         42.25068       95.64114      114.41342
H         40.77935       96.01165      114.06024
O         42.07795       94.21521      108.56025
H         41.36595       93.61237      108.25561
H         42.61550       94.31157      107.74271
O         41.40500       97.09209      109.58563
H         41.27892       98.07271      109.54029
H         42.00222       96.88582      108.82365

Ca 1.0



