%chk=apoCaM-CA-Ng.loop1.water3.frame1205.chk
%nprocshared=20
%mem=10GB
%nosave
#b3lyp/svp scf=(tight,noincore,xqc) Test 
#IOP(5/87=12) Density=Current Pop=(MK,readradii) iop(6/33=2) iop(6/42=6)

apoCaM-CA-Ng.loop1.water3.frame1205 

   0  1 
C         27.64284       98.24110       83.70117
C         26.97951       97.37960       84.73145
O         26.08526       96.62161       84.38127
H         28.72731       98.01183       83.66382
H         27.20159       98.06178       82.69668
H         27.49853       99.31004       83.96488
N         27.35877       97.46309       86.04011
C         26.71662       96.69467       87.10151
C         25.96673       97.62589       88.02849
O         26.14480       97.59436       89.23862
C         27.72289       95.76041       87.81072
C         28.85988       96.44124       88.53529
O         29.77471       95.68575       89.17080
O         28.96462       97.65723       88.56888
H         28.10412       98.12923       86.28954
H         25.94090       96.04521       86.66556
H         28.15637       95.07723       87.04902
H         27.16826       95.13928       88.54768
N         25.07749       98.49537       87.48362
C         24.26179       99.41360       88.26240
C         23.28472       98.65113       89.15571
O         23.29535       98.92201       90.34798
C         23.58043      100.47431       87.36102
C         24.65940      101.27272       86.59309
C         24.11344      102.48719       85.83966
C         25.26383      103.18759       85.09348
N         24.81129      104.41151       84.43667
H         24.98689       98.50257       86.45684
H         24.93462      100.00648       88.92413
H         23.02100      101.17308       88.02114
H         22.86034      100.02509       86.64556
H         25.17170      100.60912       85.86523
H         25.41641      101.64484       87.31853
H         23.66073      103.19044       86.57218
H         23.33530      102.17223       85.11108
H         25.68431      102.49258       84.33157
H         26.07593      103.44645       85.80992
H         24.47896      105.09626       85.15402
H         25.61494      104.83377       83.91688
H         24.04221      104.19896       83.76152
N         22.46344       97.63881       88.73317
C         22.38002       97.11358       87.37371
C         23.07901       95.76086       87.28076
O         23.49618       95.20975       88.29001
C         20.91532       97.09304       86.88897
C         20.00571       96.29443       87.77889
O         20.17018       95.09407       87.92727
O         18.99726       96.91481       88.41868
H         21.90930       97.15309       89.45663
H         22.91432       97.76866       86.67219
H         20.85086       96.69718       85.85289
H         20.54753       98.14276       86.87126
N         23.32546       95.22162       86.05647
C         24.09672       94.00586       85.82719
C         23.40455       92.74240       86.34117
O         22.10206       92.83982       85.88375
H         22.99795       95.73361       85.22258
H         25.11157       94.07668       86.26139
H         24.20896       93.89697       84.72373
N         24.07944       91.58523       85.71936
C         23.53161       90.22307       85.94376
C         23.91457       89.35434       84.74496
O         24.74086       89.80254       83.96042
C         24.13321       89.60348       87.23018
C         23.72644       90.32957       88.47471
O         22.55652       90.34669       88.81600
O         24.65503       90.92558       89.24629
H         25.11086       91.60955       85.90284
H         22.43306       90.25955       85.98367
H         25.24276       89.61122       87.14548
H         23.82711       88.55012       87.35552
N         23.41180       88.10657       84.48343
C         22.34198       87.39007       85.17116
C         20.98639       88.00035       84.90586
O         20.72277       88.36208       83.76675
H         23.81343       87.61300       83.66946
H         22.54487       87.22244       86.24456
H         22.28807       86.37916       84.71034
N         20.03569       88.07603       85.88738
C         18.70465       88.65743       85.64629
C         18.79424       90.21141       85.57910
O         20.11776       90.55730       85.41436
C         17.71761       88.23668       86.75945
C         17.52528       86.71429       86.79697
O         16.47055       88.84521       86.54360
H         20.25845       87.68248       86.81452
H         18.31501       88.25529       84.68321
H         18.14043       88.57155       87.73305
H         16.02198       88.90532       87.42764
H         17.10738       86.35475       85.83244
H         18.48357       86.18864       86.98830
H         16.82054       86.44439       87.61155
N         17.98276       90.77876       84.47945
C         18.01589       92.25946       84.28779
C         17.44948       92.98885       85.49337
O         17.99296       92.86997       86.58277
C         19.41850       92.83397       83.90992
C         20.01798       92.07876       82.69566
C         19.35507       94.35415       83.64580
C         21.49628       92.39598       82.45133
H         16.98670       90.48943       84.61533
H         17.36661       92.47160       83.40955
H         20.07474       92.71928       84.77405
H         19.42341       92.29966       81.78323
H         19.96947       90.98476       82.87345
H         18.69754       94.57614       82.77986
H         18.96923       94.89562       84.53509
H         20.36345       94.77196       83.45335
H         21.66095       93.46507       82.21478
H         22.09746       92.12021       83.34362
H         21.86382       91.79669       81.59235
N         16.35791       93.79083       85.34555
C         15.73410       94.51352       86.44334
C         14.35773       93.92466       86.65683
O         13.34910       94.61250       86.59426
C         15.77766       96.04637       86.20930
C         15.10306       96.51813       84.91401
O         17.12109       96.45467       86.19055
H         15.92380       93.86750       84.41400
H         16.28351       94.33802       87.39659
H         15.26100       96.51893       87.07915
H         17.14089       97.40603       86.47529
H         15.16211       97.62584       84.85509
H         15.61974       96.10350       84.02443
H         14.03373       96.23424       84.88012
N         14.28262       92.60331       86.96641
C         13.06036       91.88735       87.28001
C         13.16763       91.59848       88.75989
O         13.43197       90.47647       89.16652
C         12.96975       90.64304       86.36624
C         11.65878       89.87928       86.56736
O         13.04515       91.06142       85.02613
H         15.16547       92.07324       87.05297
H         12.15753       92.51403       87.10243
H         13.83211       89.97413       86.59924
H         13.45628       90.31910       84.50992
H         11.55874       89.52171       87.61193
H         10.79430       90.53381       86.32374
H         11.63484       88.99827       85.89125
N         13.10375       92.66471       89.60912
C         13.52202       92.68546       91.00472
C         15.03554       92.58244       91.08364
O         15.67089       92.25224       90.09043
C         12.82689       91.63600       91.89334
C         11.29670       91.71339       91.82332
C         10.67240       90.68732       92.77756
C          9.14172       90.69888       92.69659
N          8.56664       89.73348       93.63345
H         12.83250       93.57823       89.21203
H         13.26625       93.69854       91.39131
H         13.14937       91.80108       92.94474
H         13.15043       90.61470       91.60244
H         10.96459       91.50043       90.78362
H         10.95827       92.73418       92.10627
H         10.98661       90.92272       93.81836
H         11.03693       89.66922       92.51681
H          8.82511       90.44027       91.66139
H          8.76046       91.71564       92.93848
H          7.52496       89.74842       93.54665
H          8.91084       88.76975       93.41646
H          8.82785       89.98711       94.61419
N         15.69363       92.93826       92.22199
C         17.15108       92.95092       92.31308
C         17.76728       93.81751       91.21318
O         18.57998       93.28268       90.47266
C         17.64549       93.39174       93.70793
C         17.24985       92.40220       94.81251
C         17.78272       92.85526       96.14173
O         18.65685       92.08512       96.81691
O         17.42392       93.92066       96.61848
H         15.13600       93.25382       93.03042
H         17.52532       91.91186       92.16189
H         17.25496       94.39033       93.96959
H         18.75719       93.44578       93.68432
H         17.67025       91.40153       94.57166
H         16.14613       92.31216       94.88598
N         17.45028       95.12484       90.97666
C         16.47924       95.91120       91.70539
H         15.47590       95.44434       91.65258
H         16.79289       96.06251       92.75206
H         16.40483       96.92022       91.24592
H         17.91849       95.59089       90.18786
Ca        20.69867       91.73631       87.23529
O         20.75465       90.44931       91.21701
H         20.51144       90.70618       92.14145
H         21.50551       89.81282       91.32369
O         22.12284       93.16054       90.47606
H         22.83967       92.87277       91.09572
H         22.47719       92.95489       89.57498
O         18.28522       90.59700       89.36604
H         17.35064       90.52394       89.04875
H         18.42474       89.78230       89.91093

Ca 1.0



