%chk=apoCaM-CA-Ng.loop1.water2.frame1138.chk
%nprocshared=20
%mem=10GB
%nosave
#b3lyp/svp scf=(tight,noincore,xqc) Test 
#IOP(5/87=12) Density=Current Pop=(MK,readradii) iop(6/33=2) iop(6/42=6)

apoCaM-CA-Ng.loop1.water2.frame1138 

   0  1 
C         72.60332       40.57811       83.09933
C         74.01850       40.35202       82.67085
O         74.69947       41.31177       82.35230
H         71.91855       39.92896       82.51590
H         72.52163       40.32205       84.17708
H         72.31255       41.64085       82.96210
N         74.52363       39.08708       82.67285
C         75.92401       38.74163       82.43414
C         76.22688       38.52377       80.95292
O         76.58843       37.43384       80.53133
C         76.36078       37.59283       83.36816
C         75.69732       36.25860       83.13180
O         76.26247       35.15028       83.64308
O         74.67260       36.15613       82.47617
H         73.87790       38.34274       82.96626
H         76.56340       39.58208       82.74570
H         76.18309       37.88978       84.42732
H         77.45716       37.46398       83.24931
N         76.15259       39.59568       80.12371
C         76.36194       39.60367       78.68317
C         77.70995       40.20757       78.29833
O         78.42001       39.53668       77.56139
C         75.17432       40.30344       77.99493
C         73.90328       39.47717       78.18518
C         72.74942       40.06084       77.37720
C         71.45447       39.30686       77.68655
N         70.31185       39.97574       77.07094
H         75.90807       40.48100       80.55974
H         76.39201       38.56281       78.28861
H         75.38903       40.40849       76.91236
H         74.98293       41.32008       78.39683
H         73.64067       39.46861       79.26759
H         74.07946       38.43293       77.84889
H         72.98107       39.98438       76.28899
H         72.62040       41.13198       77.63873
H         71.29231       39.27812       78.78761
H         71.53803       38.25933       77.31857
H         70.15388       40.89262       77.55070
H         70.48252       40.13776       76.05236
H         69.46078       39.38212       77.19302
N         78.20411       41.40265       78.73196
C         77.53130       42.34210       79.62025
C         77.89961       42.12753       81.06392
O         78.75300       41.31118       81.37873
C         77.78308       43.77082       79.17028
C         79.24356       44.05354       79.11729
O         80.04425       44.00433       80.22032
O         79.71277       44.20445       78.00867
H         79.16878       41.62416       78.43841
H         76.44947       42.21619       79.56226
H         77.26829       44.49627       79.80825
H         77.35514       43.87005       78.14723
N         77.18115       42.78001       82.01276
C         77.30533       42.48807       83.41939
C         78.59913       42.89710       84.03785
O         79.37366       43.62188       83.45169
H         76.42385       43.41498       81.71903
H         77.17550       41.40853       83.57325
H         76.50220       43.01380       83.97698
N         78.85176       42.46514       85.29488
C         79.90357       42.97714       86.16682
C         79.32778       43.05956       87.58845
O         78.44653       42.27297       87.90759
C         81.15019       42.07349       86.15624
C         81.71949       41.93443       84.77935
O         82.17210       43.03378       84.10423
O         81.79196       40.81413       84.30055
H         78.14986       41.82375       85.68744
H         80.21393       43.97481       85.79629
H         80.87501       41.07210       86.55480
H         81.94802       42.49116       86.79924
N         79.76813       43.92174       88.54300
C         80.85470       44.85165       88.36427
C         80.55875       45.93170       87.36366
O         79.41504       46.16285       86.99432
H         79.33241       43.87028       89.47578
H         81.74674       44.28510       88.03829
H         81.10909       45.33428       89.33041
N         81.61104       46.61959       86.86183
C         81.50381       47.65222       85.84693
C         80.91466       47.14528       84.52832
O         81.12659       46.00628       84.14024
C         82.87529       48.33845       85.59897
C         83.97988       47.35276       85.19728
O         83.30441       49.01331       86.75360
H         82.53789       46.38207       87.23916
H         80.81432       48.43428       86.23497
H         82.75203       49.07143       84.76883
H         82.63015       49.71314       86.95376
H         84.87969       47.90849       84.86386
H         84.29466       46.71968       86.05345
H         83.63391       46.69475       84.38324
N         80.14463       48.00463       83.80235
C         79.48846       47.77408       82.51851
C         80.48467       47.68722       81.37801
O         81.37776       46.85207       81.38585
C         78.47900       46.58911       82.46254
C         77.70536       46.35452       83.77603
C         77.46283       46.78034       81.30250
C         76.96385       47.58000       84.30954
H         79.99385       48.94272       84.20219
H         78.86013       48.67893       82.35952
H         79.03796       45.65747       82.25115
H         78.40373       46.00258       84.56094
H         76.98094       45.52983       83.60257
H         77.96061       46.85399       80.31276
H         76.74911       45.93249       81.28324
H         76.84069       47.69007       81.42627
H         77.68434       48.34274       84.66630
H         76.30797       48.03784       83.54504
H         76.33328       47.27144       85.16675
N         80.30724       48.50168       80.30940
C         81.05605       48.40901       79.06370
C         82.54332       48.76297       79.16193
O         83.21354       48.61482       78.14894
C         80.34466       49.28515       77.99014
C         80.36338       50.78094       78.34508
O         78.99947       48.89113       77.86526
H         79.49709       49.13505       80.34690
H         80.99866       47.35234       78.71862
H         80.85372       49.16740       77.00590
H         78.98343       48.03955       77.35744
H         79.83524       51.35624       77.55720
H         79.83812       50.98496       79.30074
H         81.40247       51.15778       78.43255
N         83.13722       49.25042       80.29551
C         84.54027       49.67967       80.30461
C         85.51826       48.56717       79.96793
O         85.70826       47.66473       80.76921
C         84.95611       50.31325       81.65272
C         86.38366       50.87855       81.56144
O         84.07204       51.35548       81.97310
H         82.56223       49.40777       81.13523
H         84.62498       50.47178       79.52824
H         84.94810       49.54183       82.46619
H         83.54117       51.05324       82.75865
H         86.60022       51.52820       82.43248
H         87.13407       50.05747       81.54151
H         86.50543       51.47580       80.63156
N         86.21101       48.61761       78.79215
C         87.25507       47.68479       78.38591
C         86.81346       46.25439       78.58916
O         87.51263       45.49732       79.25225
C         88.58241       47.97296       79.12692
C         89.20310       49.32793       78.74911
C         90.58293       49.53982       79.40466
C         90.48747       49.72911       80.92896
N         91.79144       50.03474       81.52082
H         85.97070       49.35973       78.12029
H         87.44123       47.82637       77.29936
H         89.31928       47.19581       78.82530
H         88.41432       47.90065       80.22148
H         88.52626       50.16922       79.01348
H         89.34860       49.33749       77.64628
H         91.04417       50.44692       78.95970
H         91.24272       48.67291       79.16993
H         90.09229       48.80222       81.39227
H         89.78836       50.56464       81.15592
H         92.08505       51.00486       81.26183
H         91.70911       49.98039       82.56226
H         92.51578       49.34971       81.20545
N         85.63715       45.81551       78.06755
C         85.11648       44.50024       78.39887
C         83.64052       44.56884       78.67393
O         83.28324       44.36869       79.82591
C         85.49499       43.42053       77.37906
C         86.99842       43.16749       77.32055
C         87.22421       42.00901       76.40503
O         87.51940       42.20240       75.23736
O         86.90837       40.76662       76.81766
H         85.03814       46.48838       77.56331
H         85.55785       44.17316       79.36842
H         85.16993       43.66537       76.35336
H         84.98836       42.48094       77.68479
H         87.40394       42.92518       78.32828
H         87.52106       44.07245       76.93771
N         82.67738       44.81879       77.75056
C         82.78930       45.05846       76.32846
H         83.81973       45.16581       75.97330
H         82.27827       44.23506       75.77510
H         82.26285       46.00315       76.08839
H         81.74208       44.83583       78.12188
Ca        81.47711       43.92329       82.05227
O         81.94203       41.45989       81.19953
H         81.08786       41.17023       80.80722
H         81.76678       41.36766       82.15791
O         84.30480       45.22362       82.48432
H         84.50204       45.85087       81.74806
H         85.05547       45.34470       83.11789

Ca 1.0



