%chk=apoCaM-CA-Ng.loop4.water3.frame222.chk
%nprocshared=20
%mem=10GB
%nosave
#b3lyp/svp scf=(tight,noincore,xqc) Test 
#IOP(5/87=12) Density=Current Pop=(MK,readradii) iop(6/33=2) iop(6/42=6)

apoCaM-CA-Ng.loop4.water3.frame222 

   -3  1 
C         24.01957       53.55060       81.05768
C         24.76743       54.80752       81.38078
O         25.28431       54.91839       82.48101
H         22.96768       53.79300       80.80321
H         24.50341       53.04765       80.19401
H         24.03078       52.85336       81.92355
N         24.89296       55.78930       80.44149
C         25.65568       57.01951       80.62878
C         27.11322       56.68357       80.90642
O         27.62061       56.96649       81.97606
C         24.93637       58.03432       81.56155
C         24.67067       57.63326       82.98282
O         25.68452       57.48488       83.84781
O         23.52218       57.51738       83.38121
H         24.46461       55.63419       79.51615
H         25.66867       57.56469       79.65782
H         23.95397       58.25199       81.08590
H         25.51022       58.98634       81.57784
N         27.81762       56.05219       79.91645
C         29.21967       55.61623       79.88851
C         30.19751       56.79524       79.91557
O         30.83350       57.04305       78.90037
C         29.55249       54.49888       80.92233
C         30.92274       53.81383       80.62305
C         28.44341       53.43269       80.99104
C         31.00758       53.03452       79.29926
H         27.29052       55.84874       79.05205
H         29.32968       55.14791       78.88816
H         29.61067       54.95869       81.93238
H         31.14573       53.09953       81.44551
H         31.72979       54.56934       80.60463
H         27.49231       53.88433       81.33228
H         28.26219       52.96527       80.00183
H         28.71510       52.64257       81.72324
H         30.87488       53.69526       78.41949
H         32.01285       52.57225       79.20979
H         30.26146       52.21540       79.25905
N         30.34993       57.58687       81.01565
C         31.16558       58.79661       81.02921
C         32.66606       58.51426       80.98217
O         33.32298       59.11753       80.14603
C         30.83349       59.70045       82.24876
C         29.39917       60.16682       82.29936
O         28.58879       59.83551       81.44789
O         29.00677       60.97286       83.30395
H         29.82741       57.36624       81.86733
H         30.89297       59.42032       80.14650
H         31.47292       60.60870       82.19966
H         31.04632       59.19981       83.20513
N         33.32375       57.68965       81.85378
C         32.65912       56.77929       82.77110
C         33.61944       56.07881       83.71266
O         34.67013       55.65684       83.25087
H         34.35438       57.66660       81.80148
H         32.15481       56.00608       82.17130
H         31.88340       57.28729       83.32205
N         33.33051       55.80454       85.02564
C         32.08684       56.09764       85.73545
C         30.89231       55.49480       84.98795
O         30.05379       56.24599       84.50960
C         31.96412       57.61193       86.06356
C         30.81572       57.93141       86.99071
O         30.62701       59.08655       87.33599
O         30.00343       56.96441       87.46124
H         34.03591       55.27357       85.55693
H         32.14638       55.62268       86.73862
H         31.85585       58.23700       85.16455
H         32.89584       57.93456       86.57558
N         30.70293       54.14844       84.85012
C         31.46859       53.13124       85.54466
C         32.73867       52.71843       84.85418
O         33.01783       53.12948       83.73665
H         29.85854       53.83551       84.35771
H         30.85529       52.20964       85.62805
H         31.66667       53.45992       86.58512
N         33.57249       51.87736       85.51906
C         34.83997       51.39491       84.99588
C         34.62252       50.32882       83.93742
O         35.33363       50.32685       82.94479
C         35.70958       50.79278       86.12533
C         35.96811       51.75729       87.30339
C         36.57498       53.07167       86.87838
N         35.93826       54.23862       87.13964
O         37.65103       53.08490       86.30003
H         33.29705       51.59632       86.47272
H         35.42644       52.24487       84.57883
H         36.68953       50.49606       85.68852
H         35.22709       49.87735       86.53341
H         36.65422       51.26222       88.02264
H         35.01746       51.94661       87.84299
H         35.03075       54.24983       87.62896
H         36.35071       55.13844       86.85201
N         33.65294       49.37927       84.10658
C         33.44310       48.25833       83.18776
C         33.40988       46.91201       83.91572
O         33.32436       45.90040       83.22556
C         32.15212       48.46417       82.34804
C         32.28505       49.69729       81.44190
C         30.88608       48.57622       83.21241
H         33.01658       49.47541       84.90873
H         34.29122       48.19876       82.47042
H         32.03294       47.58340       81.67702
H         33.17314       49.59001       80.78187
H         31.38883       49.79743       80.79373
H         32.39506       50.62551       82.04112
H         30.92865       49.46814       83.87182
H         29.99207       48.67151       82.56010
H         30.75734       47.66927       83.83943
N         33.46561       46.79677       85.27593
C         33.45769       45.52134       85.98206
C         32.23620       45.39749       86.87746
O         31.52109       44.41738       86.74037
C         34.75101       45.36807       86.80361
C         35.97413       45.39212       85.91785
N         36.15809       44.45054       84.96076
O         36.81004       46.26975       86.06968
H         33.53866       47.64019       85.86165
H         33.41922       44.66847       85.26741
H         34.73632       44.40132       87.35337
H         34.81484       46.18834       87.55285
H         35.47280       43.69440       84.81996
H         36.99358       44.47366       84.35747
N         31.93544       46.34380       87.81971
C         30.81862       46.19854       88.75657
C         29.76540       47.26697       88.54948
O         30.04299       48.25486       87.89424
C         31.34852       46.36726       90.19678
C         32.45198       45.40653       90.54129
C         32.19387       44.03268       90.64575
C         33.75185       45.88597       90.77870
C         33.22179       43.15005       90.98988
C         34.77877       45.00217       91.11367
C         34.51852       43.63311       91.22467
O         35.51851       42.79427       91.56018
H         32.52474       47.18509       87.89256
H         30.33037       45.20872       88.63001
H         30.53138       46.25707       90.94265
H         31.73234       47.40955       90.28833
H         31.19582       43.64946       90.47377
H         33.97348       46.94383       90.70184
H         33.00826       42.09282       91.07722
H         35.77626       45.38424       91.29152
H         35.37905       41.84178       91.65700
N         28.56569       47.14845       89.20294
C         27.52647       48.17032       89.33582
C         26.70282       48.45599       88.07590
O         25.49333       48.28244       88.15074
C         28.10413       49.41799       90.03007
C         27.01367       50.41199       90.45317
C         27.58292       51.47681       91.34631
O         27.11896       51.61540       92.60388
O         28.47147       52.21177       90.94664
H         28.41539       46.28777       89.75130
H         26.79218       47.75643       90.06815
H         28.85753       49.92835       89.39466
H         28.61179       49.05921       90.95516
H         26.22208       49.87454       91.02054
H         26.55219       50.87654       89.55593
N         27.23903       48.90457       86.90183
C         26.42196       49.23723       85.73158
C         25.59941       48.06227       85.21072
O         24.74314       48.29989       84.36904
C         27.29602       49.73252       84.55084
C         28.19125       50.94851       84.81846
C         27.43384       52.21177       85.08253
O         27.56949       53.23821       84.22655
O         26.76134       52.34408       86.09186
H         28.24423       49.05084       86.83961
H         25.71007       50.03394       86.03859
H         26.64825       49.97693       83.67919
H         27.96356       48.89427       84.25202
H         28.80694       51.10587       83.90584
H         28.89497       50.76542       85.65396
N         25.80832       46.77827       85.62456
C         25.03577       45.65308       85.13745
H         24.24781       45.95553       84.41575
H         25.71377       44.93392       84.63289
H         24.54516       45.14800       85.99510
H         26.55573       46.56408       86.29834
Ca        26.98942       55.31850       84.81263
O         27.83141       58.25629       85.66428
H         28.17088       58.74527       84.87328
H         27.80924       58.93292       86.38638
O         24.31632       55.06303       86.04557
H         23.75752       55.21465       85.24250
H         24.48088       54.08669       86.05190
O         27.76797       54.74570       87.60929
H         27.53075       54.57547       88.55466
H         27.61431       55.71600       87.48589

Ca 1.0



