%chk=apoCaM-CA-Ng.loop4.water5.frame917.chk
%nprocshared=20
%mem=10GB
%nosave
#b3lyp/svp scf=(tight,noincore,xqc) Test 
#IOP(5/87=12) Density=Current Pop=(MK,readradii) iop(6/33=2) iop(6/42=6)

apoCaM-CA-Ng.loop4.water5.frame917 

   -3  1 
C        -12.52862      -11.43963       23.60828
C        -13.12994      -12.52697       22.76738
O        -13.97220      -12.21674       21.93840
H        -12.01729      -10.70576       22.94980
H        -13.32885      -10.92209       24.17681
H        -11.78678      -11.84350       24.32806
N        -12.75531      -13.83065       22.94613
C        -13.24893      -14.98071       22.18397
C        -12.58425      -15.11897       20.81050
O        -12.30390      -16.24297       20.41905
C        -14.79097      -15.08612       22.13490
C        -15.40348      -15.09312       23.51407
O        -15.27838      -14.02429       24.32473
O        -16.03497      -16.06403       23.89943
H        -12.09099      -14.03797       23.70734
H        -12.91174      -15.88736       22.73870
H        -15.06067      -16.03446       21.61900
H        -15.23458      -14.25782       21.54785
N        -12.28805      -14.03746       20.03342
C        -11.58865      -14.05365       18.74981
C        -12.13044      -15.06710       17.73802
O        -11.35624      -15.86118       17.22399
C        -10.03805      -14.08715       18.93768
C         -9.50796      -15.38828       19.59543
C         -9.59173      -12.84211       19.73321
C         -7.98498      -15.51080       19.51854
H        -12.55874      -13.10450       20.35028
H        -11.77827      -13.06692       18.26747
H         -9.59976      -14.00742       17.91701
H         -9.90933      -16.27579       19.06942
H         -9.82923      -15.44603       20.65646
H         -9.96734      -11.91691       19.24595
H         -9.98513      -12.87666       20.77208
H         -8.48885      -12.75589       19.77399
H         -7.67024      -16.48114       19.95568
H         -7.65570      -15.48100       18.45718
H         -7.47727      -14.70415       20.08218
N        -13.42352      -15.07906       17.31028
C        -14.48907      -14.22221       17.80928
C        -15.64655      -15.07245       18.29539
O        -15.64282      -16.27822       18.08183
C        -14.91339      -13.22829       16.70924
C        -15.38007      -13.89787       15.44155
O        -16.46166      -14.70016       15.44866
O        -14.78153      -13.70696       14.39477
H        -13.66775      -15.74842       16.56186
H        -14.15553      -13.60960       18.65913
H        -14.03544      -12.58636       16.47302
H        -15.71322      -12.56195       17.09145
N        -16.69082      -14.49339       18.94713
C        -17.89192      -15.22681       19.31910
C        -19.11008      -14.70445       18.58622
O        -20.09135      -15.43023       18.51083
H        -16.62885      -13.48956       19.16907
H        -18.05482      -15.18902       20.41720
H        -17.79166      -16.29931       19.04699
N        -19.14577      -13.44533       18.05920
C        -20.28546      -12.90023       17.33965
C        -19.88750      -12.22548       16.02162
O        -20.79044      -11.79725       15.31756
C        -21.07305      -11.96292       18.29037
C        -20.23084      -10.98045       19.07178
O        -20.19033      -11.06304       20.41556
O        -19.58870      -10.11005       18.51579
H        -18.36926      -12.79877       18.23750
H        -20.98913      -13.71361       17.05423
H        -21.56444      -12.61346       19.04638
H        -21.87875      -11.43488       17.73656
N        -18.58731      -12.08094       15.60688
C        -18.20205      -11.39689       14.37065
C        -18.52263       -9.90261       14.35755
O        -18.26795       -9.25388       13.35418
H        -17.82419      -12.47006       16.17035
H        -18.70343      -11.89480       13.51320
H        -17.10334      -11.49864       14.22910
N        -19.08433       -9.29934       15.43900
C        -19.50490       -7.91329       15.56525
C        -18.34256       -6.93801       15.60438
O        -18.46102       -5.83744       15.08192
C        -20.64074       -7.55118       14.57856
C        -21.82937       -8.52191       14.73330
C        -23.04516       -8.15201       13.92232
N        -24.15509       -8.92336       13.99869
O        -23.04539       -7.16042       13.20745
H        -19.25854       -9.86204       16.26641
H        -19.94366       -7.82225       16.58542
H        -20.27557       -7.56963       13.52861
H        -20.98966       -6.52178       14.81254
H        -22.13719       -8.54844       15.80073
H        -21.51138       -9.53927       14.42730
H        -24.17162       -9.76083       14.60030
H        -25.00192       -8.68313       13.46263
N        -17.21106       -7.25442       16.30111
C        -16.14582       -6.29868       16.60540
C        -15.78964       -6.28855       18.09818
O        -14.92364       -5.50965       18.46903
C        -14.86382       -6.59575       15.77731
C        -14.26082       -7.97707       16.08329
C        -15.12804       -6.44972       14.27405
H        -17.10791       -8.22288       16.63807
H        -16.47488       -5.26839       16.34170
H        -14.10189       -5.82825       16.04332
H        -14.95940       -8.79114       15.79968
H        -13.31490       -8.10907       15.51656
H        -14.01916       -8.07026       17.16327
H        -15.51476       -5.43172       14.05220
H        -14.18183       -6.58654       13.70808
H        -15.86613       -7.20103       13.92349
N        -16.36089       -7.14669       18.99979
C        -15.91097       -7.27927       20.37966
C        -17.02657       -6.95879       21.34756
O        -18.12248       -7.48008       21.20541
C        -15.41866       -8.72370       20.62437
C        -15.02338       -8.95566       22.06922
N        -14.04014       -8.23138       22.65422
O        -15.61563       -9.80226       22.72202
H        -17.11276       -7.78409       18.71001
H        -15.04926       -6.60956       20.58569
H        -14.54504       -8.93330       19.96984
H        -16.22787       -9.43946       20.35670
H        -13.52735       -7.50908       22.12953
H        -13.79524       -8.38803       23.64360
N        -16.74668       -6.18606       22.43620
C        -17.66514       -5.94654       23.54308
C        -16.95675       -5.10028       24.59035
O        -15.97415       -5.55630       25.15975
C        -18.12280       -7.29506       24.16598
C        -18.83330       -7.15060       25.49061
C        -19.98145       -6.35290       25.61990
C        -18.33470       -7.82515       26.61896
C        -20.61000       -6.22269       26.86317
C        -18.96899       -7.70164       27.85547
C        -20.10428       -6.89767       27.98511
O        -20.69763       -6.78136       29.18973
H        -15.79402       -5.79643       22.51119
H        -18.55628       -5.39822       23.16781
H        -17.22630       -7.93913       24.30627
H        -18.80339       -7.82369       23.46890
H        -20.38228       -5.82425       24.76465
H        -17.45461       -8.45236       26.54321
H        -21.48799       -5.59642       26.95397
H        -18.57384       -8.23055       28.71379
H        -21.47991       -6.22901       29.32697
N        -17.40839       -3.84974       24.89052
C        -16.79388       -3.01980       25.92256
C        -17.02835       -3.66781       27.27330
O        -18.18870       -3.87257       27.60477
C        -17.42920       -1.61183       25.96595
C        -17.22983       -0.81072       24.67338
C        -17.83141        0.55867       24.81835
O        -18.73349        0.91704       24.07823
O        -17.37735        1.39892       25.76860
H        -18.22149       -3.48655       24.37144
H        -15.71459       -2.89973       25.69761
H        -16.95636       -1.04876       26.80194
H        -18.52014       -1.69648       26.17364
H        -17.71138       -1.33440       23.82017
H        -16.14585       -0.70494       24.45619
N        -16.04047       -4.04120       28.13432
C        -14.59816       -3.90250       27.94111
C        -14.16550       -2.45030       27.87607
O        -14.50828       -1.67795       28.76096
C        -13.88787       -4.62152       29.10675
C        -12.35405       -4.63510       29.00089
C        -11.73861       -5.57737       30.00521
O        -10.41367       -5.80131       29.98641
O        -12.43133       -6.19971       30.79690
H        -16.35923       -4.49126       29.00834
H        -14.29824       -4.43405       27.01123
H        -14.24149       -5.67667       29.07677
H        -14.18499       -4.17760       30.08371
H        -11.94614       -3.60996       29.14216
H        -12.06611       -4.99698       27.99157
N        -13.34972       -2.02760       26.86974
C        -12.85995       -0.66897       26.78497
H        -12.16652       -0.57075       25.92172
H        -13.70780        0.03313       26.64519
H        -12.30292       -0.40552       27.71002
H        -13.03340       -2.70058       26.15493
Ca        -9.66672       -7.52919       31.23494
O        -11.80217       -8.01283       33.64851
H        -12.51067       -7.34778       33.83789
H        -11.62463       -8.44453       34.52168
O        -11.25070      -10.30476       31.62619
H        -11.53149      -10.63663       32.51587
H        -11.49924      -11.03060       31.00056
O         -7.97662       -9.53000       32.73613
H         -7.12504       -9.04981       32.89242
H         -7.70688      -10.38595       32.31819
O         -7.08282       -6.25090       31.38249
H         -6.91542       -6.06456       30.42464
H         -6.37772       -6.89667       31.63850
O         -9.94028       -5.57996       33.48267
H         -9.32037       -4.86937       33.18140
H        -10.73245       -5.09404       33.82375

Ca 1.0



