%chk=apoCaM-CA-Ng.loop3.water5.frame25.chk
%nprocshared=20
%mem=10GB
%nosave
#b3lyp/svp scf=(tight,noincore,xqc) Test 
#IOP(5/87=12) Density=Current Pop=(MK,readradii) iop(6/33=2) iop(6/42=6)

apoCaM-CA-Ng.loop3.water5.frame25 

   0  1 
C         84.05238       70.02360       45.57097
C         83.90695       71.50965       45.43163
O         84.89419       72.16511       45.13453
H         84.79973       69.79677       46.35988
H         83.08947       69.54507       45.84586
H         84.40095       69.59417       44.60799
N         82.69965       72.11695       45.63598
C         82.47550       73.55562       45.50229
C         83.24666       74.37401       46.53546
O         83.24456       75.59244       46.42413
C         82.76474       74.02717       44.05724
C         81.92619       73.27274       43.06168
O         82.45861       72.61653       42.18096
O         80.58179       73.32094       43.13509
H         81.88668       71.53306       45.88448
H         81.39876       73.76755       45.69026
H         83.83979       73.91068       43.80918
H         82.51688       75.10629       43.96107
N         83.85685       73.79044       47.61192
C         84.56962       74.54148       48.64066
C         85.96324       73.94755       48.77971
O         86.33989       73.52758       49.86696
C         83.79117       74.42671       49.97310
C         82.33849       74.92463       49.86788
C         81.52444       74.64518       51.14205
C         82.01959       75.41804       52.37311
N         81.19009       75.11517       53.53928
H         83.78518       72.77227       47.75017
H         84.65734       75.61498       48.36417
H         84.33281       75.00121       50.75373
H         83.76387       73.35431       50.27100
H         81.82905       74.37203       49.04946
H         82.31758       76.00781       49.62031
H         81.54360       73.55283       51.35324
H         80.46983       74.93727       50.94602
H         81.97557       76.50934       52.16205
H         83.07004       75.14487       52.60713
H         80.19379       75.37265       53.35224
H         81.25302       74.09602       53.76764
H         81.53488       75.66607       54.35812
N         86.74066       73.77435       47.67431
C         87.93986       72.94692       47.69287
C         89.06599       73.60147       46.91469
O         88.84795       73.99859       45.77905
C         87.55916       71.58776       47.06547
C         88.58404       70.50009       47.24952
O         88.36828       69.39443       46.78091
O         89.71142       70.70739       47.95826
H         86.37218       74.07990       46.75975
H         88.26177       72.73628       48.73661
H         87.34426       71.72332       45.98412
H         86.63153       71.22043       47.55764
N         90.32127       73.69460       47.43921
C         91.46022       74.19238       46.67969
C         91.86659       73.29478       45.51336
O         92.79104       73.66953       44.80674
H         90.48708       73.38548       48.40706
H         92.34069       74.26759       47.35402
H         91.22736       75.21278       46.30554
N         91.24459       72.10604       45.24964
C         91.58636       71.22153       44.13859
C         90.43719       71.09922       43.14415
O         90.62389       70.46047       42.11757
C         91.96246       69.84324       44.70465
C         93.14586       69.94444       45.66794
N         94.40348       70.18772       44.96802
O         93.25853       68.76432       46.38298
H         90.49053       71.78644       45.86280
H         92.44046       71.63248       43.56177
H         92.20264       69.11461       43.90117
H         91.08389       69.45328       45.26784
H         94.39292       71.13822       44.54125
H         95.17534       70.18089       45.67408
N         89.23780       71.71706       43.35296
C         88.16561       71.76044       42.38088
C         87.63191       70.39536       42.05137
O         87.14575       69.72155       42.94509
H         89.07042       72.23274       44.21871
H         88.53620       72.27652       41.46994
H         87.32736       72.36506       42.79110
N         87.64319       69.96948       40.75490
C         87.13464       68.70375       40.23744
C         88.09074       67.55128       40.51083
O         88.54523       66.96012       39.54324
C         85.67651       68.42740       40.66927
C         84.99261       67.45542       39.73195
C         84.77721       67.82328       38.38944
C         84.54451       66.20058       40.17371
C         84.13663       66.95327       37.50626
C         83.90685       65.32629       39.28376
C         83.70103       65.70184       37.94677
O         83.08449       64.87420       37.07903
H         88.00427       70.62664       40.04576
H         87.12490       68.83567       39.13175
H         85.08872       69.37003       40.62369
H         85.65843       68.06812       41.72019
H         85.09732       68.79168       38.02491
H         84.68954       65.89646       41.20190
H         83.97691       67.25559       36.47832
H         83.57036       64.35895       39.63379
H         82.76388       63.99926       37.33900
N         88.44087       67.17730       41.78138
C         89.42638       66.15505       42.13978
C         90.86725       66.65125       41.94935
O         91.62020       66.56394       42.91209
C         89.09666       64.75470       41.54013
C         87.62515       64.33744       41.83069
C         90.05962       63.67206       42.06687
C         87.24453       64.25120       43.31754
H         87.97847       67.63077       42.57344
H         89.35017       66.01209       43.24110
H         89.22016       64.78564       40.43767
H         87.43226       63.34689       41.36492
H         86.94099       65.06241       41.34708
H         90.02165       63.59271       43.17234
H         89.80273       62.68475       41.62652
H         91.10405       63.89478       41.78988
H         86.18332       63.93935       43.40878
H         87.86351       63.50347       43.85340
H         87.34176       65.23551       43.81964
N         91.32797       67.23760       40.80031
C         92.68036       67.77558       40.68976
C         93.74414       66.69241       40.62616
O         94.91204       67.04492       40.66372
C         92.81033       68.72570       39.48667
O         92.56841       68.05783       38.27767
H         90.70122       67.38359       40.00851
H         92.87314       68.40077       41.59140
H         93.81596       69.20940       39.47620
H         92.07550       69.55285       39.59053
H         93.43554       67.67332       37.98575
N         93.42475       65.35901       40.57012
C         94.41657       64.29404       40.66719
C         95.20598       64.52036       41.93821
O         96.41207       64.73923       41.88232
C         95.28492       64.23687       39.40205
H         92.44285       65.07248       40.52314
H         93.89144       63.31419       40.73823
H         94.63957       64.06453       38.51404
H         95.85580       65.17483       39.24721
H         96.00302       63.39219       39.47670
N         94.55103       64.57096       43.13058
C         95.18067       65.05747       44.34894
C         94.30486       64.79731       45.55671
O         93.15255       65.21418       45.56748
C         95.42905       66.56938       44.22604
H         93.54647       64.32483       43.14968
H         96.15397       64.53907       44.49499
H         94.46858       67.10783       44.06501
H         95.90601       66.95796       45.15028
H         96.09844       66.79717       43.37159
N         94.80979       64.11530       46.62501
C         94.07048       63.79113       47.83956
C         92.92130       62.86205       47.50212
O         91.77529       63.15281       47.81748
C         93.61151       65.06337       48.59422
C         94.78732       65.98463       48.95121
C         94.33629       67.26919       49.58764
O         93.02876       67.53624       49.76629
O         95.15492       68.15294       49.78453
H         95.79016       63.79474       46.58327
H         94.75218       63.23168       48.51828
H         93.09108       64.76973       49.53221
H         92.89069       65.62586       47.96588
H         95.31655       66.26145       48.01233
H         95.50056       65.46528       49.62367
N         93.17602       61.70294       46.83636
C         92.12845       60.77300       46.48082
H         91.37637       61.27626       45.83666
H         92.56019       59.91598       45.92159
H         91.63727       60.38989       47.39996
H         94.14463       61.47705       46.56347
Ca        92.56920       69.27688       48.47943
O         93.03384       69.93433       51.84870
H         93.48366       70.57537       52.45449
H         92.35071       69.49537       52.41533
O         90.38798       66.93351       47.91798
H         90.92641       66.92732       47.08711
H         90.18265       67.88921       48.07145
O         90.70923       71.97040       50.82265
H         90.84151       71.78400       51.78572
H         90.67172       72.95805       50.76758
O         89.91369       68.70386       51.09628
H         89.16470       69.18989       51.52453
H         89.76354       67.75493       51.33614
O         93.65724       72.16013       49.13414
H         93.67817       72.49076       50.06729
H         94.58112       72.29148       48.80299

Ca 1.0



