%chk=apoCaM-CA-Ng.loop2.water2.frame816.chk
%nprocshared=20
%mem=10GB
%nosave
#b3lyp/svp scf=(tight,noincore,xqc) Test 
#IOP(5/87=12) Density=Current Pop=(MK,readradii) iop(6/33=2) iop(6/42=6)

apoCaM-CA-Ng.loop2.water2.frame816 

   -2  1 
C         72.37033      -21.17933       84.85398
C         73.68004      -21.70477       85.36252
O         73.85174      -22.91425       85.41535
H         71.54775      -21.54110       85.50511
H         72.35375      -20.06878       84.84736
H         72.20386      -21.53976       83.81751
N         74.65812      -20.84711       85.76396
C         75.95088      -21.29890       86.26061
C         76.70314      -22.06073       85.18210
O         77.29857      -23.07973       85.49991
C         76.78192      -20.10321       86.76939
C         78.03490      -20.55780       87.47053
O         77.94943      -21.35210       88.55630
O         79.13072      -20.19798       87.07261
H         74.47150      -19.83271       85.72303
H         75.77853      -21.96214       87.13894
H         76.18052      -19.53569       87.51269
H         77.02959      -19.42087       85.92680
N         76.71220      -21.62049       83.88584
C         77.44760      -22.29458       82.81101
C         77.31657      -21.55967       81.46837
O         76.39942      -20.76404       81.32051
C         76.93540      -23.73542       82.60652
H         76.19213      -20.75585       83.67653
H         78.50919      -22.28621       83.13046
H         75.86109      -23.71934       82.32114
H         77.49839      -24.25283       81.80527
H         77.04063      -24.35651       83.51549
N         78.17161      -21.75404       80.41402
C         79.38648      -22.56633       80.44789
C         80.60797      -21.67425       80.29585
O         80.47903      -20.52103       79.90882
C         79.36327      -23.71283       79.41109
C         79.26034      -23.26128       77.97797
O         80.14936      -23.53094       77.18684
O         78.16390      -22.61461       77.54201
H         77.98329      -21.21969       79.55216
H         79.49083      -23.05369       81.43191
H         78.50439      -24.38447       79.62146
H         80.29281      -24.31224       79.53434
N         81.82482      -22.12883       80.69933
C         83.02358      -21.30866       80.72942
C         84.18495      -22.06976       80.14755
O         85.04697      -22.46665       80.91896
H         81.88716      -23.07734       81.10152
H         83.25016      -21.11940       81.80211
H         82.89613      -20.31756       80.24659
N         84.30963      -22.36821       78.82545
C         83.44316      -21.88857       77.75278
C         83.66806      -20.39247       77.55932
O         84.81870      -19.98914       77.45377
C         83.82017      -22.64552       76.45765
C         82.89279      -22.43974       75.28883
N         83.17653      -23.04385       74.11313
O         81.88297      -21.76137       75.39403
H         85.10991      -22.96795       78.56533
H         82.38432      -22.13546       77.98349
H         83.80533      -23.73708       76.66852
H         84.85317      -22.36380       76.15727
H         84.02039      -23.62547       74.01282
H         82.56105      -22.93544       73.29910
N         82.62781      -19.51533       77.47275
C         82.81000      -18.07273       77.33464
C         82.40451      -17.53105       75.97589
O         82.47982      -16.32368       75.79777
H         81.66658      -19.88221       77.49611
H         83.87216      -17.78368       77.48382
H         82.21701      -17.57138       78.12925
N         82.00366      -18.34713       74.96093
C         81.64631      -17.87965       73.62279
C         80.20202      -18.23193       73.32301
O         79.54318      -18.83022       74.16385
C         82.60154      -18.51530       72.57839
C         84.04026      -18.02778       72.76186
O         82.55931      -19.91623       72.68281
H         81.95684      -19.35857       75.12574
H         81.72736      -16.77329       73.54501
H         82.28381      -18.19987       71.55833
H         82.74480      -20.28551       71.78036
H         84.08189      -16.92350       72.64417
H         84.43145      -18.30265       73.76336
H         84.69215      -18.48414       71.98657
N         79.64394      -17.89247       72.12428
C         78.27836      -18.23842       71.75813
C         78.38001      -19.26283       70.64125
O         78.95646      -18.96469       69.60371
C         77.46638      -16.97664       71.33378
C         75.94464      -17.27424       71.20423
C         77.71073      -15.77996       72.27380
C         75.21089      -17.47445       72.54082
H         80.21640      -17.39862       71.42311
H         77.77213      -18.69706       72.63096
H         77.83812      -16.66283       70.33311
H         75.79636      -18.17167       70.56704
H         75.45286      -16.41741       70.69523
H         77.11897      -14.90238       71.93636
H         77.44465      -16.02427       73.32282
H         78.78017      -15.48279       72.25605
H         75.65173      -18.29749       73.13191
H         75.23552      -16.54520       73.14894
H         74.14246      -17.71010       72.35296
N         77.90667      -20.52201       70.82721
C         78.11942      -21.63052       69.90688
C         76.80794      -22.15358       69.34200
O         76.85389      -23.10946       68.58021
C         78.88684      -22.73231       70.66504
C         80.26651      -22.26012       71.05255
O         81.10550      -22.06404       70.18777
O         80.57783      -22.01079       72.33984
H         77.40516      -20.73026       71.69654
H         78.72989      -21.32013       69.02962
H         79.00464      -23.64795       70.04625
H         78.30449      -23.01088       71.56938
N         75.61358      -21.53581       69.59393
C         74.39195      -21.87465       68.87733
C         73.16462      -21.63063       69.75913
O         73.02443      -20.51206       70.23487
C         74.30790      -20.95835       67.63695
C         73.07176      -21.22481       66.81374
C         72.06026      -20.25377       66.73249
C         72.91305      -22.44179       66.12874
C         70.90326      -20.50148       65.99022
C         71.75533      -22.68401       65.38294
C         70.74996      -21.71563       65.31643
H         75.60308      -20.67482       70.15727
H         74.44614      -22.92078       68.52208
H         75.20432      -21.09279       66.99207
H         74.31414      -19.90222       67.98735
H         72.16100      -19.31030       67.25435
H         73.68364      -23.20170       66.17251
H         70.12468      -19.75174       65.94058
H         71.63623      -23.62316       64.85834
H         69.85235      -21.90509       64.74273
N         72.18826      -22.57377       69.97202
C         70.91639      -22.27289       70.62605
C         70.95795      -21.84125       72.08173
O         69.89041      -21.56350       72.61265
C         70.12625      -23.57991       70.50814
C         70.63948      -24.12992       69.19913
C         72.13632      -23.87996       69.34162
H         70.42758      -21.47392       70.02285
H         70.45848      -24.28726       71.30386
H         69.02413      -23.45679       70.57741
H         70.36504      -25.18516       68.99042
H         70.24603      -23.48491       68.37844
H         72.60157      -24.62403       70.02479
H         72.58154      -23.93716       68.33237
N         72.11086      -21.77513       72.81040
C         72.10279      -21.39877       74.22562
C         71.62376      -19.96867       74.46673
O         71.43859      -19.61134       75.62221
C         73.49187      -21.61247       74.86269
C         74.53138      -20.60897       74.35648
C         75.89737      -20.97038       74.83636
O         76.17222      -21.02363       76.02334
O         76.81726      -21.22980       73.90188
H         72.99810      -22.05829       72.37147
H         71.40304      -22.09568       74.73788
H         73.82112      -22.65101       74.63426
H         73.42385      -21.51149       75.96822
H         74.27834      -19.58064       74.69035
H         74.54986      -20.61617       73.24438
N         71.42330      -19.08585       73.44516
C         70.96248      -17.73554       73.67846
H         69.96609      -17.75709       74.16871
H         71.68563      -17.19244       74.32278
H         70.87059      -17.19544       72.71189
H         71.60796      -19.35735       72.46998
Ca        78.95252      -21.87142       73.87679
O         77.40857      -24.34424       74.89494
H         77.24757      -25.20261       74.42880
H         76.50391      -24.00466       75.11092
O         79.04687      -19.76076       76.99467
H         78.07582      -19.57491       76.99507
H         79.38399      -19.27324       77.78661

Ca 1.0



