%chk=apoCaM-CA-Ng.loop4.water4.frame790.chk
%nprocshared=20
%mem=10GB
%nosave
#b3lyp/svp scf=(tight,noincore,xqc) Test 
#IOP(5/87=12) Density=Current Pop=(MK,readradii) iop(6/33=2) iop(6/42=6)

apoCaM-CA-Ng.loop4.water4.frame790 

   -3  1 
C        -11.54017       -4.98835       -8.85449
C        -12.83895       -5.20951       -9.56949
O        -12.81355       -5.32185      -10.78305
H        -11.05388       -4.06827       -9.23971
H        -11.68820       -4.88898       -7.75971
H        -10.86736       -5.85103       -9.04694
N        -14.01894       -5.29622       -8.88543
C        -15.31406       -5.55337       -9.51975
C        -15.40417       -6.95763      -10.12918
O        -16.38255       -7.23627      -10.80846
C        -15.68047       -4.43318      -10.52539
C        -15.76707       -3.07411       -9.87716
O        -16.04498       -2.10088      -10.55828
O        -15.56374       -2.91610       -8.55403
H        -14.00579       -5.17985       -7.86072
H        -16.10543       -5.53087       -8.73656
H        -16.67713       -4.64857      -10.96713
H        -14.94943       -4.38991      -11.35629
N        -14.48450       -7.92677       -9.83089
C        -14.58145       -9.32408      -10.26904
C        -15.94385       -9.92135       -9.88625
O        -16.31331       -9.81508       -8.72604
C        -13.40012      -10.18781       -9.69705
C        -13.24749      -10.12814       -8.15130
C        -12.09187       -9.80677      -10.41580
C        -12.28616      -11.18814       -7.60935
H        -13.70352       -7.67366       -9.21685
H        -14.48912       -9.34389      -11.37011
H        -13.60576      -11.24558       -9.94611
H        -14.22101      -10.33014       -7.66670
H        -12.89690       -9.12910       -7.81985
H        -12.21937       -9.93490      -11.51179
H        -11.80967       -8.75357      -10.20812
H        -11.25324      -10.46732      -10.12429
H        -11.25685      -11.05090       -7.99395
H        -12.24638      -11.11718       -6.50248
H        -12.64878      -12.20234       -7.88334
N        -16.79404      -10.52127      -10.78375
C        -16.49358      -10.80206      -12.18808
C        -17.74798      -11.23443      -12.93446
O        -18.33961      -12.24761      -12.58631
C        -15.44596      -11.93637      -12.30212
C        -15.04621      -12.20896      -13.72065
O        -15.26628      -13.41989      -14.26845
O        -14.49141      -11.33898      -14.37144
H        -17.72249      -10.80265      -10.42947
H        -16.11872       -9.87510      -12.67018
H        -15.85516      -12.86351      -11.84129
H        -14.52082      -11.68024      -11.77636
N        -18.17953      -10.51501      -14.00739
C        -19.31045      -10.89316      -14.84007
C        -18.90718      -11.09519      -16.29075
O        -19.79204      -11.29323      -17.11060
H        -17.67178       -9.65420      -14.26569
H        -20.04869      -10.06352      -14.79896
H        -19.80826      -11.81601      -14.47595
N        -17.60418      -11.01516      -16.69080
C        -17.17408      -11.02267      -18.08157
C        -16.16024      -12.11557      -18.38931
O        -16.33658      -12.78444      -19.39973
C        -16.65965       -9.61350      -18.46874
C        -15.76794       -8.92827      -17.45720
O        -16.17253       -7.76928      -16.90366
O        -14.69285       -9.39510      -17.12725
H        -16.86980      -10.86043      -15.98850
H        -18.02878      -11.20280      -18.77378
H        -17.55626       -8.96379      -18.57029
H        -16.17364       -9.65088      -19.46788
N        -15.06342      -12.35123      -17.61338
C        -14.01099      -13.26147      -18.03884
C        -13.17225      -12.64084      -19.14542
O        -12.37861      -13.34598      -19.75133
H        -14.94371      -11.85454      -16.72511
H        -14.46501      -14.22531      -18.35881
H        -13.32251      -13.47981      -17.19352
N        -13.24034      -11.29763      -19.40159
C        -12.47040      -10.57741      -20.40244
C        -10.96513      -10.63080      -20.16711
O        -10.22363      -10.17030      -21.02254
C        -12.96160      -10.92463      -21.82237
C        -14.44549      -10.50143      -21.94998
C        -14.98357      -10.61419      -23.34883
N        -16.09050      -11.34878      -23.60716
O        -14.44078       -9.99855      -24.25412
H        -13.86723      -10.71460      -18.84730
H        -12.69541       -9.49145      -20.29346
H        -12.82971      -12.00324      -22.05203
H        -12.36940      -10.33007      -22.55149
H        -14.54464       -9.43206      -21.65965
H        -15.06763      -11.10062      -21.25099
H        -16.58016      -11.85381      -22.85402
H        -16.47393      -11.39497      -24.56269
N        -10.46119      -11.01034      -18.95456
C         -9.06102      -10.85651      -18.56436
C         -8.92561       -9.82506      -17.44390
O         -7.80748       -9.60184      -16.99547
C         -8.45841      -12.21950      -18.11602
C         -9.17251      -12.82244      -16.88976
C         -8.45615      -13.22532      -19.27193
H        -11.10631      -11.34002      -18.22588
H         -8.45480      -10.47730      -19.41605
H         -7.39629      -12.04542      -17.83104
H         -9.15032      -12.11653      -16.03257
H        -10.22838      -13.07823      -17.11494
H         -8.65809      -13.75352      -16.57115
H         -7.96525      -14.16972      -18.95344
H         -9.49157      -13.45491      -19.60017
H         -7.88747      -12.81366      -20.13263
N        -10.00946       -9.17219      -16.92813
C         -9.95382       -8.27031      -15.78746
C        -10.43855       -6.88278      -16.17984
O        -11.01768       -6.71911      -17.24821
C        -10.83365       -8.90689      -14.68969
C        -11.01092       -8.08775      -13.44525
N        -12.24932       -7.68932      -13.07344
O        -10.04373       -7.80008      -12.75603
H        -10.94683       -9.33635      -17.32319
H         -8.90854       -8.16750      -15.41977
H        -10.39726       -9.88916      -14.40448
H        -11.83774       -9.10543      -15.12587
H        -13.08018       -7.92905      -13.63476
H        -12.38400       -7.15149      -12.21244
N        -10.18081       -5.81521      -15.37121
C        -10.61020       -4.45402      -15.68733
C         -9.69579       -3.41941      -15.03497
O         -8.92619       -3.77143      -14.14834
C        -12.10334       -4.32885      -15.28148
C        -12.76587       -3.01064      -15.59118
C        -12.61599       -1.91038      -14.73010
C        -13.57831       -2.88317      -16.72920
C        -13.25038       -0.69738      -15.01618
C        -14.20733       -1.66931      -17.01670
C        -14.04454       -0.57203      -16.16534
O        -14.65739        0.59220      -16.45966
H         -9.62317       -5.98467      -14.52091
H        -10.48572       -4.29964      -16.78237
H        -12.24085       -4.55411      -14.19960
H        -12.65434       -5.12790      -15.82319
H        -12.01264       -1.99449      -13.83545
H        -13.71853       -3.72192      -17.39960
H        -13.12445        0.14285      -14.34469
H        -14.82290       -1.58324      -17.90303
H        -14.56858        1.37694      -15.90043
N         -9.69682       -2.11819      -15.45693
C         -8.87760       -1.08376      -14.83500
C         -9.80023       -0.05062      -14.20492
O        -10.37796        0.73789      -14.94137
C         -7.93371       -0.39200      -15.84154
C         -6.88219       -1.33078      -16.44362
C         -5.98322       -0.57086      -17.38086
O         -4.66298       -0.48211      -17.12931
O         -6.44487       -0.02662      -18.37184
H        -10.32366       -1.84147      -16.22874
H         -8.23131       -1.53470      -14.06472
H         -7.39445        0.42409      -15.30858
H         -8.53483        0.06184      -16.66047
H         -7.37286       -2.15629      -17.00118
H         -6.26866       -1.76712      -15.62524
N        -10.06988       -0.00906      -12.86636
C         -9.56944       -0.98936      -11.90507
C         -8.07695       -0.83680      -11.67445
O         -7.49522        0.16168      -12.07761
C        -10.34183       -0.89916      -10.57032
C        -11.82976       -1.25087      -10.76479
C        -12.60503       -1.14967       -9.48415
O        -12.30604       -1.83851       -8.52234
O        -13.66139       -0.31793       -9.40466
H        -10.74087        0.70523      -12.54350
H         -9.75683       -2.00303      -12.32170
H        -10.23797        0.12594      -10.15022
H         -9.91059       -1.62160       -9.84319
H        -11.91500       -2.29006      -11.15070
H        -12.29634       -0.56968      -11.50666
N         -7.38492       -1.85000      -11.08148
C         -5.95017       -1.83287      -10.88148
H         -5.48535       -0.88218      -11.21678
H         -5.72690       -1.97660       -9.80457
H         -5.49201       -2.66559      -11.45700
H         -7.89229       -2.69952      -10.79098
Ca       -14.93339       -0.26431       -7.53684
O        -12.53371        0.51336       -6.02271
H        -12.63074        0.48826       -5.03789
H        -12.98818        1.35007       -6.29549
O        -17.71119       -0.11605       -9.00381
H        -18.42768        0.55888       -9.10801
H        -18.18707       -0.98404       -8.98067
O        -16.00467        2.49844       -8.08152
H        -15.77404        2.13148       -8.97203
H        -15.16943        2.92691       -7.76662
O        -17.44556       -0.77693       -5.74355
H        -17.55016       -1.63042       -6.23474
H        -18.06920       -0.15317       -6.19348

Ca 1.0



