%chk=apoCaM-CA-Ng.loop2.water4.frame1462.chk
%nprocshared=20
%mem=10GB
%nosave
#b3lyp/svp scf=(tight,noincore,xqc) Test 
#IOP(5/87=12) Density=Current Pop=(MK,readradii) iop(6/33=2) iop(6/42=6)

apoCaM-CA-Ng.loop2.water4.frame1462 

   -2  1 
C         56.51010       83.34821       76.18800
C         56.77798       82.35688       75.09494
O         57.15092       81.23406       75.40212
H         57.18736       84.21993       76.06297
H         55.45282       83.68114       76.15139
H         56.70546       82.89249       77.18126
N         56.65254       82.67316       73.77802
C         56.21622       83.96715       73.26320
C         57.39336       84.72288       72.65630
O         57.55968       85.88520       73.00111
C         54.98032       83.81011       72.34425
C         55.08639       82.73311       71.30967
O         54.21161       81.70880       71.30755
O         55.95294       82.77742       70.46480
H         56.90635       81.94537       73.09194
H         55.85121       84.63038       74.07512
H         54.75178       84.78282       71.85594
H         54.11142       83.54202       72.98328
N         58.30100       84.12616       71.83158
C         59.49168       84.80743       71.32121
C         59.54672       84.81880       69.79718
O         60.51321       85.33737       69.25527
C         60.73200       84.11147       71.89275
H         58.18263       83.13202       71.59602
H         59.52236       85.86608       71.66018
H         60.69941       84.13805       73.00358
H         60.77573       83.05161       71.56264
H         61.65877       84.62992       71.56535
N         58.54461       84.28398       69.04066
C         58.56796       84.20353       67.58276
C         57.21579       83.77172       66.98577
O         57.20626       83.35218       65.83556
C         59.69397       83.22883       67.14235
C         59.47938       81.82194       67.63693
O         60.37891       81.24876       68.45790
O         58.50531       81.18344       67.27626
H         57.74514       83.89448       69.52850
H         58.79169       85.20724       67.15844
H         60.67235       83.59006       67.51878
H         59.76543       83.20967       66.03390
N         56.02656       83.90179       67.65282
C         54.76803       83.46012       67.07974
C         54.68551       81.92276       67.02422
O         54.45112       81.44313       68.31980
H         55.97788       84.37577       68.56296
H         54.66201       83.91149       66.07017
H         53.91753       83.82484       67.69862
N         53.58463       81.52090       66.13740
C         53.33615       80.06277       66.08881
C         54.55383       79.27539       65.63224
O         55.36982       79.80379       64.88830
C         52.14031       79.78741       65.15785
C         50.88081       80.43338       65.68159
N         50.34143       80.03395       66.85770
O         50.33829       81.31747       65.03554
H         53.79958       81.86789       65.17280
H         53.07133       79.70701       67.10630
H         51.95694       78.69601       65.06380
H         52.37591       80.18544       64.14452
H         50.77487       79.27713       67.40658
H         49.48029       80.47194       67.21641
N         54.75269       77.99524       66.07524
C         55.95504       77.23499       65.75287
C         57.17399       77.87845       66.39016
O         56.99702       78.80879       67.15531
H         54.04127       77.55218       66.67642
H         56.05154       77.18989       64.64888
H         55.86930       76.19763       66.14207
N         58.45897       77.51048       66.13078
C         58.87331       76.50546       65.16242
C         60.08707       75.73896       65.68997
O         60.05285       74.51755       65.72467
C         59.22249       77.20374       63.82348
C         59.52825       76.18193       62.72423
O         58.13868       77.98509       63.38802
H         59.18561       78.10046       66.56170
H         58.03737       75.80027       64.95634
H         60.12153       77.85194       63.94827
H         58.22998       78.87811       63.81307
H         58.64507       75.52708       62.55518
H         59.75837       76.71004       61.77509
H         60.39917       75.54985       62.99426
N         61.19955       76.41433       66.11441
C         62.44531       75.79257       66.55635
C         62.51136       75.84167       68.07613
O         62.33804       76.92577       68.61589
C         63.64836       76.57231       65.94417
C         63.62276       76.58654       64.39451
C         65.00307       76.06586       66.47688
C         63.79098       75.21434       63.73694
H         61.17392       77.44370       66.13413
H         62.47550       74.75354       66.20449
H         63.56351       77.63498       66.26935
H         64.44107       77.24634       64.03273
H         62.66593       77.03027       64.04460
H         65.05989       76.18653       67.57890
H         65.15896       74.99377       66.24342
H         65.83070       76.66476       66.04106
H         64.76745       74.76268       64.00616
H         62.97199       74.52532       64.02460
H         63.76513       75.33442       62.63423
N         62.73593       74.74990       68.87177
C         63.03543       73.38009       68.44641
C         64.23660       72.82281       69.20796
O         64.26538       72.90775       70.42995
C         61.77657       72.50072       68.58187
C         61.06171       72.61183       69.90131
O         61.66190       72.24422       71.04719
O         59.91433       73.02984       69.93207
H         62.67062       74.90485       69.89128
H         63.30393       73.31320       67.37839
H         62.03733       71.43969       68.37529
H         61.06709       72.82679       67.78842
N         65.25110       72.19111       68.53897
C         66.43130       71.61325       69.18555
C         67.72017       72.10162       68.52273
O         67.63373       72.60868       67.40537
C         66.39378       70.07644       69.03383
C         65.24913       69.42926       69.76950
C         65.20174       69.46624       71.17371
C         64.23963       68.75038       69.06604
C         64.16338       68.83196       71.86149
C         63.19972       68.12177       69.75796
C         63.16293       68.16030       71.15439
H         65.16391       72.07481       67.51589
H         66.42674       71.88559       70.25389
H         67.32536       69.61396       69.41692
H         66.34000       69.84067       67.94697
H         65.97616       69.97149       71.73585
H         64.25770       68.70375       67.98434
H         64.13839       68.85553       72.94329
H         62.42558       67.59883       69.21156
H         62.36185       67.66617       71.68860
N         68.96833       71.94341       69.07481
C         69.28038       71.52208       70.44544
C         68.53835       72.35634       71.46035
O         67.91920       71.80598       72.36247
C         70.78721       71.80865       70.57548
C         71.27339       71.55507       69.17312
C         70.18607       72.23809       68.34739
H         69.08141       70.43702       70.56632
H         70.96833       72.89293       70.75939
H         71.29631       71.23744       71.38129
H         72.30657       71.89921       68.95523
H         71.21625       70.45570       68.99934
H         70.31313       73.34192       68.29209
H         70.19441       71.79443       67.32725
N         68.49593       73.70671       71.30659
C         67.71359       74.59873       72.14555
C         68.34006       74.66185       73.53071
O         69.48309       75.08734       73.62570
C         67.67572       76.00945       71.50863
C         66.97569       76.00385       70.13207
C         67.09942       77.34088       69.45977
O         66.59151       78.44444       70.03920
O         67.66440       77.43246       68.38066
H         69.00654       74.11071       70.50521
H         66.66642       74.23077       72.18005
H         68.72077       76.37404       71.38825
H         67.13402       76.71384       72.17751
H         65.90167       75.74620       70.25601
H         67.42787       75.24346       69.46107
N         67.69731       74.26045       74.66390
C         66.35664       73.71706       74.68919
H         65.63155       74.46178       74.30073
H         66.30605       72.78781       74.08585
H         66.07596       73.46180       75.73319
H         68.19603       74.33771       75.56420
Ca        56.34939       80.45926       69.12492
O         54.00352       78.46926       69.42286
H         53.34791       79.20180       69.54018
H         53.78828       77.82758       70.14477
O         58.46613       77.93202       70.14958
H         59.11583       77.86809       70.89432
H         58.69982       77.17893       69.55119
O         58.73496       80.52421       71.65311
H         59.49368       80.53517       72.28869
H         59.07843       80.98423       70.84689
O         55.99907       79.06427       72.06939
H         55.29692       79.50731       72.60859
H         55.70575       78.12071       72.00680

Ca 1.0



