%chk=apoCaM-CA-Ng.loop3.water5.frame395.chk
%nprocshared=20
%mem=10GB
%nosave
#b3lyp/svp scf=(tight,noincore,xqc) Test 
#IOP(5/87=12) Density=Current Pop=(MK,readradii) iop(6/33=2) iop(6/42=6)

apoCaM-CA-Ng.loop3.water5.frame395 

   0  1 
C         21.44035       99.35521       37.47548
C         22.82522       99.93062       37.47946
O         23.45410       99.97108       38.52426
H         20.72032      100.12969       37.13538
H         21.39648       98.48892       36.78288
H         21.14687       99.01874       38.49265
N         23.36009      100.41139       36.32397
C         24.67766      101.02842       36.20821
C         24.73893      102.29846       37.05600
O         25.66255      102.47963       37.83784
C         25.78606       99.98807       36.52079
C         27.18944      100.44030       36.20928
O         28.21541       99.59967       36.44196
O         27.41437      101.54290       35.73541
H         22.78872      100.35670       35.46613
H         24.79386      101.33561       35.14458
H         25.59664       99.07965       35.90856
H         25.74123       99.69492       37.59006
N         23.73258      103.21602       36.95196
C         23.67691      104.48980       37.68078
C         23.76230      104.37077       39.20433
O         23.91307      105.39185       39.86099
C         22.36606      105.23896       37.32295
C         21.11105      104.46850       37.81476
C         19.77483      105.11550       37.43214
C         19.56040      106.49073       38.07859
N         18.22044      106.99621       37.78170
H         22.97509      102.99857       36.28729
H         24.55319      105.08734       37.34623
H         22.31380      105.36932       36.22008
H         22.39150      106.24738       37.78644
H         21.13942      104.35518       38.92001
H         21.10411      103.44845       37.37789
H         18.96889      104.43572       37.78790
H         19.69653      105.19542       36.32624
H         20.31446      107.21189       37.69757
H         19.67729      106.40417       39.18193
H         18.10331      107.93707       38.22190
H         18.08768      107.08361       36.74803
H         17.49871      106.34893       38.17554
N         23.61918      103.17621       39.83563
C         23.65828      102.99832       41.28731
C         25.02193      103.39530       41.87385
O         25.96074      103.64811       41.13144
C         23.26822      101.52552       41.55580
C         23.42644      100.98833       42.93681
O         22.41511      100.38069       43.57552
O         24.54615      100.88046       43.39784
H         23.42074      102.35426       39.25359
H         22.89081      103.65926       41.74681
H         23.92475      100.89298       40.92504
H         22.22285      101.36314       41.21215
N         25.16501      103.53288       43.22616
C         26.38069      103.98464       43.89039
C         27.54562      103.03268       43.72729
O         28.58426      103.44584       43.23257
H         24.34414      103.36406       43.82724
H         26.17637      104.07259       44.98029
H         26.64926      104.99590       43.51545
N         27.44049      101.73779       44.13645
C         28.52141      100.75657       44.04531
C         28.37587       99.84289       42.82853
O         29.15317       98.90702       42.70122
C         28.64009       99.96702       45.37363
C         27.45951       99.08608       45.71325
N         27.47622       98.34373       46.84196
O         26.48961       99.02868       44.97621
H         26.53869      101.43305       44.51860
H         29.49522      101.27710       43.91176
H         28.79202      100.68879       46.20556
H         29.53929       99.31559       45.32046
H         28.28376       98.36912       47.48094
H         26.67670       97.73929       47.07442
N         27.47492      100.11404       41.84128
C         27.38501       99.36054       40.60203
C         26.58635       98.09131       40.75327
O         27.05405       97.02743       40.37579
H         26.88997      100.95815       41.90680
H         28.39459       99.19137       40.16636
H         26.81718       99.97781       39.87289
N         25.32371       98.16666       41.25219
C         24.36995       97.06643       41.31727
C         24.00779       96.74640       42.78980
O         24.87168       97.31819       43.71958
C         23.10526       97.51749       40.54960
C         21.85547       96.72049       40.83524
C         21.72596       95.37731       40.45388
C         20.79279       97.34905       41.51157
C         20.54784       94.67700       40.74810
C         19.62706       96.64854       41.81002
C         19.49859       95.30844       41.42933
O         18.37533       94.62086       41.71691
H         25.00627       99.08084       41.59387
H         24.79672       96.15681       40.84189
H         23.31162       97.54783       39.45870
H         22.89586       98.56277       40.86479
H         22.53060       94.87656       39.93104
H         20.86784       98.38481       41.82162
H         20.45093       93.64076       40.45199
H         18.82713       97.15097       42.33988
H         17.63757       95.02444       42.19747
N         23.78588       95.30321       43.01661
C         23.88098       94.85195       44.42156
C         25.29679       95.05652       44.96939
O         25.43776       95.69892       45.99930
C         23.41195       93.37436       44.52782
C         22.01731       93.14744       43.87781
C         23.40965       92.89904       45.99110
C         20.87820       93.99533       44.45580
H         24.40657       94.71635       42.41530
H         23.18305       95.46012       45.03765
H         24.12764       92.73041       43.96957
H         21.74454       92.07453       43.97844
H         22.08312       93.36234       42.79050
H         22.74310       93.52646       46.61908
H         23.07364       91.84241       46.05221
H         24.43185       92.94811       46.41310
H         20.73437       93.79962       45.53702
H         21.06746       95.07589       44.29495
H         19.93229       93.74078       43.93419
N         26.39248       94.64388       44.27093
C         27.75862       94.97493       44.66833
C         28.14593       94.29554       45.95884
O         28.80100       94.92044       46.78090
C         28.75891       94.58492       43.56945
O         28.45948       95.25149       42.37223
H         26.25508       94.13567       43.38578
H         27.85374       96.07891       44.79017
H         28.72575       93.49068       43.38595
H         29.79860       94.83743       43.88332
H         28.70708       96.20410       42.50684
N         27.74793       93.01542       46.20991
C         28.08089       92.26732       47.41473
C         27.77763       93.07230       48.67244
O         28.63309       93.17482       49.54276
C         29.54780       91.81603       47.34864
H         27.14142       92.54449       45.52121
H         27.45209       91.34944       47.42224
H         29.71917       91.22562       46.42293
H         30.23016       92.69290       47.33539
H         29.79816       91.17686       48.22130
N         26.59771       93.74373       48.79158
C         26.29316       94.62640       49.90966
C         24.93285       94.30379       50.48185
O         23.95261       94.34362       49.74985
C         26.32898       96.07731       49.43553
H         25.92242       93.69675       48.01461
H         27.06524       94.54177       50.70545
H         27.34018       96.31160       49.03916
H         25.58172       96.25224       48.63769
H         26.11924       96.76323       50.28405
N         24.80127       93.99224       51.80198
C         23.53316       93.69394       52.45596
C         22.90150       92.46287       51.83351
O         21.76521       92.51305       51.38040
C         22.58499       94.92044       52.45416
C         23.21607       96.14116       53.13986
C         22.25236       97.29274       53.18331
O         21.82372       97.77854       52.14839
O         21.86306       97.80138       54.36813
H         25.64857       93.96303       52.38958
H         23.74463       93.44614       53.52017
H         21.65718       94.64814       53.00513
H         22.29833       95.19184       51.41562
H         24.12831       96.46064       52.59135
H         23.50398       95.86986       54.17864
N         23.60795       91.30182       51.77961
C         23.05943       90.09342       51.20605
H         22.78221       90.26740       50.14452
H         23.81369       89.27947       51.24910
H         22.16133       89.77875       51.77874
H         24.56901       91.27537       52.15310
Ca        23.38979       98.72089       44.70983
O         24.57090       99.07120       48.46254
H         25.47503       99.41015       48.68081
H         24.05002       99.20057       49.29436
O         24.47640      101.54673       46.50545
H         25.25362      101.59739       47.11676
H         24.16664      102.48314       46.41984
O         20.51461       97.74366       44.81000
H         20.55915       97.31154       45.69898
H         20.07737       98.61544       44.97884
O         21.62036      100.07363       47.26168
H         21.92716      100.69773       47.96663
H         20.68889       99.85233       47.51439
O         22.75030       96.89803       47.38366
H         23.44710       96.25016       47.65204
H         21.90083       96.45414       47.62899

Ca 1.0



