%chk=apoCaM-CA-Ng.loop4.water3.frame239.chk
%nprocshared=20
%mem=10GB
%nosave
#b3lyp/svp scf=(tight,noincore,xqc) Test 
#IOP(5/87=12) Density=Current Pop=(MK,readradii) iop(6/33=2) iop(6/42=6)

apoCaM-CA-Ng.loop4.water3.frame239 

   -3  1 
C         18.49009       34.95059       87.46970
C         17.94683       36.34767       87.43367
O         17.54387       36.82746       88.47505
H         19.35647       34.91889       88.16679
H         17.70970       34.25364       87.83901
H         18.83348       34.61817       86.46916
N         17.94789       37.07782       86.28170
C         17.55776       38.48404       86.18921
C         18.41140       39.35799       87.09223
O         17.89670       40.06441       87.93816
C         16.02304       38.73147       86.19417
C         15.07415       38.15130       87.22680
O         15.07469       38.46093       88.54039
O         14.16086       37.44918       86.82122
H         18.32888       36.63937       85.42962
H         17.84106       38.83638       85.17001
H         15.67063       38.32046       85.21950
H         15.85289       39.82857       86.14080
N         19.76054       39.36251       86.88054
C         20.80602       40.13254       87.55945
C         20.71103       41.63721       87.31913
O         21.58933       42.15272       86.63959
C         20.98018       39.78885       89.06420
C         22.28309       40.41767       89.65159
C         20.97143       38.27046       89.30055
C         23.60242       39.87743       89.06912
H         20.10328       38.73809       86.13249
H         21.74177       39.80128       87.06056
H         20.11809       40.21046       89.62559
H         22.30444       40.22894       90.74495
H         22.26761       41.51880       89.50647
H         21.12257       38.05435       90.37730
H         19.99612       37.83974       89.00148
H         21.76281       37.75998       88.71588
H         24.45920       40.38188       89.56219
H         23.70859       38.78904       89.25556
H         23.69285       40.07051       87.98159
N         19.72200       42.42309       87.84778
C         19.70071       43.86316       87.62822
C         20.87570       44.53092       88.34976
O         21.67134       45.14547       87.65377
C         18.32834       44.51758       87.95269
C         17.21070       43.94187       87.12900
O         16.14277       43.38997       87.73666
O         17.24831       43.99618       85.91066
H         18.97733       42.01248       88.41988
H         19.82164       44.04336       86.53448
H         18.39352       45.60569       87.73206
H         18.01858       44.41448       88.99715
N         21.09807       44.49712       89.70354
C         20.26115       43.80613       90.67849
C         20.57410       44.17211       92.12238
O         21.57360       44.83398       92.36236
H         21.91322       45.02897       90.04367
H         20.32079       42.70730       90.52770
H         19.25751       44.14451       90.53666
N         19.77755       43.80984       93.17850
C         18.50593       43.08803       93.14003
C         18.65781       41.73853       92.45765
O         18.04679       41.52447       91.42013
C         17.35772       43.96877       92.56453
C         15.97720       43.41541       92.82432
O         15.79637       42.26537       93.50172
O         15.00083       44.03405       92.43188
H         20.09874       44.08776       94.11950
H         18.19864       42.90968       94.19433
H         17.44097       44.11731       91.47706
H         17.39815       44.96439       93.05490
N         19.42385       40.73860       92.97520
C         20.13384       40.79087       94.23459
C         21.44946       41.49812       94.11869
O         22.03300       41.54000       93.04408
H         19.44820       39.84964       92.47679
H         20.39439       39.75824       94.54692
H         19.48540       41.19265       95.04153
N         22.00016       42.05165       95.22826
C         23.29453       42.71803       95.21985
C         24.44496       41.71946       95.10966
O         25.57519       42.16270       94.96800
C         23.44688       43.56421       96.50011
C         22.36200       44.66126       96.56890
C         22.36860       45.43615       97.86085
N         21.45189       46.41178       98.05588
O         23.17791       45.18189       98.74122
H         21.46015       42.00752       96.10663
H         23.33344       43.41131       94.34867
H         24.44519       44.05422       96.52140
H         23.36420       42.88926       97.38124
H         21.35210       44.21172       96.47805
H         22.50331       45.36483       95.71936
H         20.75772       46.63261       97.32613
H         21.42894       46.94196       98.93910
N         24.24159       40.36726       95.18664
C         25.31508       39.37977       95.08884
C         25.49187       38.58952       96.37992
O         26.40862       37.77622       96.40956
C         25.08782       38.42244       93.88043
C         25.21278       39.17483       92.54964
C         23.74205       37.67748       93.94332
H         23.29187       40.00771       95.34165
H         26.29238       39.88636       94.92798
H         25.89882       37.65950       93.88866
H         25.11125       38.46605       91.69967
H         24.43418       39.96006       92.45769
H         26.21485       39.65004       92.47641
H         23.64905       37.11181       94.89401
H         22.88594       38.37843       93.85412
H         23.67039       36.95391       93.10364
N         24.71233       38.77436       97.49046
C         24.96504       38.06833       98.74646
C         23.80100       37.19596       99.20597
O         24.00396       36.43161      100.13683
C         25.26253       39.09428       99.86175
C         26.34200       40.08123       99.49347
N         27.60216       39.67309       99.22412
O         26.07035       41.27208       99.44344
H         23.95393       39.47197       97.47352
H         25.84369       37.39628       98.63489
H         25.55024       38.56842      100.79836
H         24.33144       39.66820      100.06234
H         27.85475       38.67599       99.26390
H         28.32811       40.36182       98.97563
N         22.54253       37.31153       98.68146
C         21.37534       36.68194       99.30180
C         20.29959       36.38788       98.27543
O         20.01744       37.26763       97.47897
C         20.73724       37.66675      100.30983
C         21.64987       38.04935      101.44733
C         22.11267       37.08111      102.35471
C         22.03472       39.38897      101.61827
C         22.95489       37.44831      103.40857
C         22.87593       39.75366      102.67188
C         23.33970       38.78749      103.56958
O         24.15012       39.15728      104.58126
H         22.36933       38.02981       97.96739
H         21.64986       35.75265       99.84737
H         19.82332       37.20792      100.74893
H         20.42069       38.58091       99.75898
H         21.82312       36.04329      102.24670
H         21.68801       40.15298      100.93356
H         23.30629       36.69207      104.09906
H         23.16705       40.78969      102.78897
H         24.49059       38.52144      105.22639
N         19.53617       35.25255       98.38088
C         18.29797       34.97561       97.64050
C         18.53461       34.44727       96.23406
O         18.07301       33.35237       95.94199
C         17.32853       36.18349       97.67923
C         15.93948       35.85530       97.11701
C         15.02731       37.04348       97.23832
O         15.29720       38.08961       96.66897
O         13.90445       36.95889       97.97683
H         19.76261       34.60052       99.14699
H         17.78064       34.15486       98.19042
H         17.73124       37.03735       97.09936
H         17.21066       36.49711       98.74060
H         15.50586       35.00324       97.68356
H         16.01516       35.57018       96.04575
N         19.22764       35.16051       95.30684
C         19.44742       34.71082       93.93611
C         20.13413       33.36023       93.93960
O         19.60218       32.42178       93.36189
C         20.31210       35.73020       93.15555
C         19.74131       37.15791       93.08798
C         18.49011       37.30810       92.27023
O         18.50665       38.16101       91.22845
O         17.45395       36.74753       92.58704
H         19.62585       36.05462       95.59074
H         18.46764       34.60940       93.42127
H         20.48669       35.36626       92.11903
H         21.29957       35.80386       93.66036
H         20.52719       37.79570       92.63335
H         19.55019       37.56876       94.09699
N         21.30597       33.18012       94.60809
C         21.96411       31.89437       94.66840
H         22.88202       31.96855       95.28895
H         21.28572       31.14417       95.12908
H         22.24515       31.56328       93.64670
H         21.73293       33.97218       95.11194
Ca        16.73827       38.78210       90.00551
O         15.02870       41.36945       89.91949
H         15.96423       41.66531       89.79001
H         14.74203       41.81360       90.75572
O         15.52090       39.38762       92.77412
H         15.41521       38.53013       93.25669
H         16.40366       39.72688       93.06684
O         14.63672       36.53067       90.57385
H         14.77571       35.93701       89.79341
H         15.08460       36.06588       91.32358

Ca 1.0



