%chk=apoCaM-CA-Ng.loop4.water5.frame573.chk
%nprocshared=20
%mem=10GB
%nosave
#b3lyp/svp scf=(tight,noincore,xqc) Test 
#IOP(5/87=12) Density=Current Pop=(MK,readradii) iop(6/33=2) iop(6/42=6)

apoCaM-CA-Ng.loop4.water5.frame573 

   -3  1 
C         45.79875       11.06678       58.19785
C         45.03526       10.42728       57.07666
O         45.61624        9.64776       56.33948
H         46.65043       11.64415       57.78191
H         45.15751       11.76102       58.78146
H         46.18364       10.28199       58.88127
N         43.72034       10.72631       56.88391
C         42.87804       10.18479       55.81948
C         42.71887        8.67814       55.97898
O         42.89811        7.93812       55.02048
C         43.42659       10.57501       54.42385
C         43.86887       12.00984       54.38358
O         43.07434       12.92161       54.54698
O         45.18501       12.26768       54.24350
H         43.27315       11.39779       57.52722
H         41.87285       10.64737       55.94161
H         42.68224       10.35874       53.62723
H         44.32454        9.96340       54.20903
N         42.43972        8.15688       57.20829
C         42.33468        6.72192       57.48163
C         41.04449        6.42030       58.24203
O         40.44632        7.35322       58.76048
C         43.59942        6.23846       58.26788
C         43.82138        7.03702       59.58144
C         44.82420        6.29989       57.34406
C         45.00376        6.53926       60.41493
H         42.35501        8.81191       57.99996
H         42.28821        6.17471       56.52122
H         43.47812        5.17649       58.54129
H         42.91027        6.94829       60.21062
H         43.99563        8.11159       59.36243
H         45.05469        7.34107       57.05630
H         45.72049        5.85236       57.81827
H         44.61496        5.71473       56.42595
H         45.96385        6.68114       59.87805
H         45.06169        7.12683       61.35546
H         44.87481        5.46686       60.67077
N         40.51800        5.16441       58.38464
C         40.99153        3.94388       57.73025
C         40.82440        4.05173       56.23130
O         41.78915        3.83034       55.51214
C         40.20352        2.71196       58.22355
C         40.39992        2.48187       59.69668
O         39.34093        2.49062       60.52795
O         41.51702        2.27547       60.14476
H         39.67248        5.08444       58.97223
H         42.05100        3.73998       57.97244
H         40.56176        1.80544       57.68573
H         39.12053        2.83764       58.00654
N         39.62740        4.41801       55.68781
C         39.42623        4.50938       54.25537
C         39.28181        3.13065       53.67024
O         38.29322        2.47316       53.96472
H         38.84723        4.67934       56.30918
H         40.26191        5.08598       53.80132
H         38.48568        5.05868       54.03412
N         40.24401        2.60949       52.86211
C         40.14895        1.27983       52.26989
C         40.99949        0.26174       53.01715
O         41.04161       -0.88082       52.58266
C         40.42254        1.35608       50.74926
C         41.76925        1.91877       50.38046
O         41.84235        2.95148       49.73337
O         42.89770        1.27459       50.72144
H         41.10411        3.15668       52.70347
H         39.11375        0.88360       52.36466
H         39.63702        2.00332       50.30001
H         40.32145        0.34643       50.29546
N         41.61419        0.55811       54.20416
C         42.31413       -0.44419       54.99430
C         43.59535       -0.93028       54.35674
O         44.17961       -1.87000       54.87481
H         41.52577        1.49695       54.61149
H         41.62660       -1.30118       55.16074
H         42.57794       -0.02275       55.98929
N         44.12117       -0.31100       53.26358
C         45.36044       -0.69611       52.60438
C         46.53964       -0.59780       53.55697
O         47.46256       -1.39759       53.47713
C         45.22767       -2.06707       51.90647
C         44.08078       -2.05216       50.87829
C         43.89305       -3.36360       50.15901
N         42.91496       -3.48085       49.23150
O         44.61029       -4.32258       50.40548
H         43.65111        0.52007       52.88758
H         45.55379        0.06078       51.81016
H         45.04116       -2.85933       52.66287
H         46.17656       -2.30160       51.37628
H         44.28186       -1.26294       50.12173
H         43.12774       -1.81417       51.39220
H         42.30044       -2.68222       49.01319
H         42.76948       -4.36981       48.73085
N         46.58155        0.41881       54.46202
C         47.71964        0.71750       55.31814
C         48.22154        2.12700       55.04684
O         49.14257        2.54489       55.73255
C         47.34401        0.58598       56.82789
C         46.20065        1.52688       57.25762
C         47.00201       -0.86099       57.19513
H         45.76567        1.04637       54.52798
H         48.56493        0.02266       55.11658
H         48.24244        0.85934       57.42627
H         46.45327        2.58553       57.03688
H         45.24957        1.27002       56.74695
H         46.03458        1.44515       58.35313
H         47.85494       -1.52785       56.94676
H         46.81373       -0.93955       58.28794
H         46.09979       -1.20661       56.65173
N         47.64200        2.93597       54.10345
C         47.95970        4.34909       53.99499
C         48.58252        4.66630       52.65152
O         48.56208        3.84368       51.74910
C         46.66934        5.12487       54.32263
C         46.83163        6.60834       54.50216
N         45.97625        7.46774       53.90700
O         47.70098        7.03920       55.24441
H         46.90141        2.58516       53.48190
H         48.71891        4.61353       54.76051
H         46.32559        4.73466       55.30169
H         45.87577        4.89818       53.57500
H         45.19854        7.12783       53.32213
H         46.07501        8.48014       54.06048
N         49.29546        5.81930       52.52448
C         50.13095        6.11663       51.36159
C         51.27773        7.04198       51.75558
O         51.31387        7.51065       52.88228
C         49.25636        6.64368       50.20643
C         48.55736        7.93292       50.56538
C         47.21433        7.92196       50.97663
C         49.24109        9.15752       50.49213
C         46.57271        9.11500       51.32201
C         48.59279       10.34864       50.82900
C         47.26200       10.33167       51.25075
O         46.65549       11.48742       51.58158
H         49.34713        6.42386       53.35256
H         50.62687        5.17304       51.04196
H         48.49653        5.86195       49.98766
H         49.83675        6.78046       49.26847
H         46.66841        6.98920       51.04721
H         50.27133        9.19146       50.16292
H         45.54091        9.09360       51.64959
H         49.12149       11.28762       50.76157
H         45.73314       11.51175       51.87058
N         52.29881        7.29253       50.88649
C         53.46069        8.08536       51.27125
C         53.59168        9.27242       50.33965
O         54.04258        9.07942       49.21968
C         54.70747        7.17482       51.25719
C         55.99920        7.90136       51.65435
C         57.15217        6.93793       51.68496
O         58.10815        7.09698       50.94282
O         57.13850        5.89467       52.53737
H         52.27399        6.87339       49.94543
H         53.35842        8.44742       52.30753
H         54.83715        6.73026       50.24508
H         54.52647        6.34338       51.97518
H         55.88770        8.35729       52.66093
H         56.21125        8.70873       50.92011
N         53.16645       10.53101       50.66321
C         52.44395       10.90557       51.87927
C         53.32114       10.89923       53.11771
O         54.35141       11.55872       53.12534
C         51.82743       12.31031       51.70094
C         50.90341       12.68997       52.87125
C         50.21637       13.99715       52.61217
O         50.86696       15.02035       52.47171
O         48.87270       14.04540       52.53825
H         53.27261       11.25143       49.93046
H         51.58523       10.21029       52.00388
H         51.22012       12.30155       50.76996
H         52.62882       13.07257       51.57981
H         51.48086       12.76640       53.81719
H         50.13071       11.90088       52.99666
N         52.91414       10.23041       54.23489
C         53.62974       10.25486       55.49434
H         54.56046       10.85710       55.44291
H         52.97359       10.69904       56.27409
H         53.88867        9.21912       55.79519
H         52.02603        9.70765       54.21339
Ca        46.14717       14.29278       54.45852
O         48.21700       11.68732       55.12761
H         48.39924       10.78954       54.75163
H         48.66244       11.68180       56.01192
O         44.11468       16.39335       54.98257
H         44.00541       15.72591       55.70609
H         43.87502       15.90337       54.15610
O         48.99811       15.15998       55.66012
H         49.98438       15.23011       55.71234
H         48.66566       15.95541       56.14729
O         47.03434       16.86488       53.14810
H         47.82685       17.18648       53.64668
H         47.40985       16.35602       52.38640
O         45.02573       14.64270       51.68300
H         44.11141       14.45393       52.01235
H         45.27062       13.83975       51.15932

Ca 1.0



