%chk=apoCaM-CA-Ng.loop4.water8.frame715.chk
%nprocshared=20
%mem=10GB
%nosave
#b3lyp/svp scf=(tight,noincore,xqc) Test 
#IOP(5/87=12) Density=Current Pop=(MK,readradii) iop(6/33=2) iop(6/42=6)

apoCaM-CA-Ng.loop4.water8.frame715 

   -3  1 
C         80.05500       80.46465       -0.55667
C         80.91589       79.27313       -0.24730
O         80.48695       78.15754       -0.49527
H         79.10377       80.39729        0.01081
H         80.56050       81.41433       -0.28076
H         79.82784       80.48893       -1.64285
N         82.16183       79.44002        0.27864
C         83.08023       78.35352        0.60924
C         83.35412       77.47981       -0.60444
O         83.26362       76.26151       -0.52144
C         82.58758       77.53753        1.82974
C         82.46777       78.34638        3.09639
O         82.07828       77.73505        4.23006
O         82.73136       79.53874        3.12080
H         82.50325       80.40130        0.43246
H         84.05502       78.81076        0.89183
H         83.31657       76.72406        2.03560
H         81.60420       77.07367        1.60593
N         83.69759       78.06145       -1.78512
C         84.04317       77.28994       -2.97955
C         85.49340       76.80385       -2.85308
O         86.18770       77.31780       -1.98567
C         83.80085       78.15057       -4.26818
C         84.75950       79.37311       -4.35618
C         82.31571       78.56136       -4.34797
C         84.61559       80.17628       -5.64906
H         83.70155       79.08943       -1.82083
H         83.35850       76.41537       -3.03059
H         83.99161       77.52944       -5.15783
H         85.80723       79.00601       -4.31970
H         84.61175       80.07158       -3.50889
H         82.08802       79.06754       -5.30749
H         81.66979       77.65902       -4.30105
H         82.03502       79.24016       -3.51563
H         83.61704       80.65331       -5.71731
H         85.37396       80.98757       -5.66093
H         84.77930       79.52294       -6.53155
N         86.07836       75.85960       -3.65177
C         85.41411       75.03308       -4.65225
C         84.39215       74.09884       -4.03126
O         83.30152       73.99250       -4.57486
C         86.42663       74.26696       -5.54640
C         87.41576       73.32597       -4.90116
O         88.20028       72.72103       -5.61392
O         87.48656       73.15509       -3.57053
H         87.08632       75.69663       -3.50368
H         84.89440       75.66735       -5.39037
H         87.02329       75.02493       -6.10008
H         85.84407       73.68737       -6.29688
N         84.64724       73.41378       -2.87908
C         83.69146       72.48956       -2.30385
C         83.57825       71.25215       -3.15650
O         84.54895       70.51361       -3.25012
H         85.52212       73.57607       -2.36454
H         82.71444       73.00421       -2.17880
H         84.03144       72.16651       -1.29535
N         82.41885       70.96225       -3.80805
C         82.21596       69.73945       -4.57719
C         82.10391       69.98808       -6.07563
O         81.97225       69.01033       -6.79859
C         81.01545       68.95688       -3.98819
C         79.74413       69.75630       -3.84608
O         79.16864       70.20106       -4.82180
O         79.22329       69.96991       -2.62233
H         81.63962       71.63548       -3.74805
H         83.09813       69.06845       -4.48344
H         81.30656       68.62504       -2.96833
H         80.81679       68.04461       -4.59162
N         82.21192       71.23083       -6.63833
C         82.19649       71.43690       -8.08392
C         80.87020       71.09894       -8.74121
O         80.79241       71.15856       -9.95937
H         82.36194       72.05554       -6.04234
H         83.00062       70.81716       -8.53670
H         82.42015       72.50248       -8.31000
N         79.77695       70.76942       -7.99915
C         78.45866       70.45388       -8.52656
C         77.85363       71.63701       -9.25843
O         77.01006       71.44270      -10.12360
C         78.44619       69.13598       -9.33179
C         79.01690       67.97454       -8.49567
C         78.92006       66.62927       -9.16908
N         79.41167       65.53456       -8.54358
O         78.39919       66.51417      -10.26910
H         79.85219       70.77616       -6.98112
H         77.79150       70.28436       -7.65067
H         79.03229       69.24114      -10.26974
H         77.39154       68.90186       -9.59808
H         78.47163       67.91133       -7.52884
H         80.08713       68.17535       -8.28845
H         79.85699       65.61532       -7.61709
H         79.35046       64.60505       -8.98444
N         78.17675       72.90770       -8.87851
C         77.53170       74.10311       -9.40469
C         76.79273       74.86179       -8.30413
O         76.04033       75.76269       -8.64399
C         78.55287       75.02444      -10.13203
C         79.71832       75.45461       -9.22343
C         79.10535       74.34682      -11.39194
H         78.89588       73.03317       -8.15344
H         76.74843       73.81333      -10.14006
H         78.01655       75.94196      -10.46200
H         79.33482       75.95747       -8.31676
H         80.33833       74.58612       -8.91586
H         80.37985       76.16770       -9.75914
H         79.66029       73.42028      -11.13591
H         78.27384       74.08976      -12.08184
H         79.79329       75.03738      -11.92577
N         76.96171       74.57745       -6.97451
C         76.24161       75.26409       -5.90949
C         75.56510       74.25371       -4.99035
O         75.70549       73.05456       -5.17633
C         77.21817       76.16079       -5.12014
C         77.77490       77.26688       -5.98108
N         79.10773       77.39209       -6.17419
O         77.01177       78.06871       -6.49951
H         77.64317       73.87112       -6.67302
H         75.43966       75.91114       -6.32738
H         78.04229       75.54070       -4.70729
H         76.69363       76.64805       -4.27168
H         79.76946       76.72994       -5.74484
H         79.48004       78.15355       -6.76094
N         74.77440       74.70686       -3.97716
C         74.03410       73.83200       -3.06481
C         72.97172       74.61680       -2.29617
O         72.88631       75.82404       -2.44004
C         74.96425       73.02392       -2.11737
C         75.88798       73.85128       -1.24804
C         76.99163       74.51431       -1.80993
C         75.69009       73.92397        0.14179
C         77.87528       75.23944       -1.00674
C         76.57217       74.65401        0.94514
C         77.66620       75.31015        0.37666
O         78.51278       75.99179        1.17146
H         74.65717       75.72565       -3.90629
H         73.45663       73.10894       -3.68186
H         75.59207       72.31480       -2.69726
H         74.32043       72.39013       -1.47154
H         77.18705       74.44851       -2.86553
H         74.85481       73.41675        0.60714
H         78.72594       75.73436       -1.46021
H         76.41220       74.70553        2.01424
H         79.29793       76.43287        0.82347
N         72.05513       73.96111       -1.52687
C         70.92543       74.62745       -0.88991
C         70.92089       74.31287        0.60301
O         70.12801       73.48252        1.02535
C         69.63814       74.17131       -1.61437
C         68.39705       74.94800       -1.14403
C         67.18938       74.55883       -1.94619
O         66.59926       75.39525       -2.61160
O         66.74759       73.28683       -1.93239
H         72.10568       72.93439       -1.45393
H         70.95620       75.72283       -1.04043
H         69.48741       73.07576       -1.49195
H         69.77077       74.37961       -2.70030
H         68.58142       76.03845       -1.26910
H         68.19172       74.75042       -0.07197
N         71.77325       74.90117        1.49499
C         72.71613       75.97292        1.18843
C         71.97934       77.23203        0.76533
O         71.06025       77.65079        1.45611
C         73.58307       76.30223        2.42683
C         74.59213       77.42608        2.10883
C         75.48239       77.80877        3.25048
O         75.42811       77.23717        4.32784
O         76.33237       78.83733        3.07199
H         71.72028       74.57644        2.47440
H         73.41342       75.63667        0.39226
H         74.13392       75.38645        2.73297
H         72.93245       76.61864        3.27283
H         74.03854       78.34677        1.83031
H         75.22927       77.12702        1.25030
N         72.39488       77.92396       -0.33195
C         71.79085       79.15801       -0.78515
H         70.92817       79.46302       -0.15770
H         72.55232       79.96604       -0.75471
H         71.44372       79.03215       -1.83156
H         73.21255       77.58556       -0.85674
Ca        77.60464       79.71563        4.71331
O         74.82642       81.29122        4.90182
H         74.37027       81.58558        4.07397
H         74.25047       81.62216        5.63601
O         76.62440       81.56752        2.01625
H         75.76927       81.67390        1.52862
H         77.31917       81.84141        1.36655
O         79.08103       77.57082        6.13999
H         79.71553       77.52860        5.38197
H         78.23098       77.22696        5.76634
O         75.86739       78.66114        7.13689
H         75.06845       78.64343        7.72026
H         75.52774       79.00254        6.27289
O         77.67813       81.45555        7.12773
H         77.92242       82.36715        7.42615
H         77.54684       80.94370        7.96479
O         79.25040       78.94454        2.33767
H         79.82872       79.44029        2.96888
H         79.03830       78.09997        2.80740
O         77.26121       83.23272        4.55519
H         77.93658       83.66709        3.97600
H         76.92249       83.96147        5.13348
O         80.02020       81.63286        4.69911
H         80.76404       81.80997        4.07029
H         80.45844       81.51619        5.57916

Ca 1.0



