%chk=apoCaM-CA-Ng.loop3.water6.frame1157.chk
%nprocshared=20
%mem=10GB
%nosave
#b3lyp/svp scf=(tight,noincore,xqc) Test 
#IOP(5/87=12) Density=Current Pop=(MK,readradii) iop(6/33=2) iop(6/42=6)

apoCaM-CA-Ng.loop3.water6.frame1157 

   0  1 
C         80.45573       48.81313       69.37626
C         79.95946       47.69146       68.51658
O         80.61840       47.35381       67.54483
H         81.41530       49.21585       68.98495
H         79.70474       49.63159       69.37665
H         80.60820       48.45253       70.41370
N         78.77704       47.07960       68.81038
C         78.18116       46.04533       67.97058
C         76.85909       46.53338       67.39888
O         75.94992       45.73736       67.20639
C         78.04864       44.71331       68.74641
C         77.11933       44.74148       69.93714
O         76.49915       45.74736       70.24473
O         76.95448       43.62086       70.66412
H         78.25883       47.39873       69.64174
H         78.83945       45.83894       67.09668
H         79.05953       44.40810       69.09322
H         77.67356       43.93005       68.05554
N         76.71211       47.84449       67.04822
C         75.52873       48.40510       66.40818
C         75.30819       47.68311       65.09059
O         74.24741       47.12297       64.85038
C         74.28410       48.37572       67.32506
C         74.54200       48.97680       68.71695
C         73.22642       49.08819       69.50062
C         73.46101       49.51419       70.95555
N         72.18803       49.67624       71.65940
H         77.49975       48.49195       67.20119
H         75.74386       49.47577       66.18857
H         73.92545       47.33348       67.46654
H         73.48226       48.95281       66.81288
H         74.99469       49.98902       68.63164
H         75.25102       48.31419       69.26075
H         72.70616       48.10574       69.50613
H         72.57472       49.83360       68.99273
H         74.02225       50.47381       70.98994
H         74.06718       48.73311       71.46744
H         71.63856       50.45396       71.22619
H         71.63330       48.79024       71.61872
H         72.37465       49.91217       72.66068
N         76.34609       47.60965       64.21731
C         76.35019       46.83208       62.98848
C         77.39140       45.72797       63.12917
O         78.51066       45.99996       63.54234
C         76.56502       47.76262       61.78023
C         77.83328       48.56298       61.82326
O         77.77269       49.90445       61.91117
O         78.91758       48.01127       61.75007
H         77.21498       48.09930       64.46833
H         75.36169       46.35130       62.81958
H         75.70933       48.47351       61.75999
H         76.53798       47.17389       60.83870
N         77.07013       44.43517       62.84488
C         77.95849       43.31790       63.12519
C         77.96539       43.06785       64.61817
O         76.87865       42.90731       65.15614
H         76.14667       44.22383       62.43772
H         78.95615       43.49727       62.67489
H         77.53576       42.40326       62.65655
N         79.08165       43.03116       65.40074
C         80.46523       43.12310       64.94968
C         81.36403       43.26898       66.17639
O         81.33952       42.38258       67.02106
C         80.86961       41.83892       64.18913
C         82.32745       41.86117       63.79133
N         83.19346       40.94791       64.29331
O         82.73118       42.71814       63.01979
H         78.91877       42.91959       66.41342
H         80.57405       44.00356       64.28740
H         80.25427       41.70125       63.27841
H         80.67916       40.96426       64.85002
H         82.87647       40.22255       64.95363
H         84.19003       40.97019       64.03097
N         82.18337       44.33671       66.38296
C         82.31880       45.45301       65.45362
C         83.24515       46.52851       65.97800
O         83.77456       46.38710       67.07117
H         82.72699       44.33154       67.25895
H         81.32391       45.91413       65.29760
H         82.71142       45.08286       64.48315
N         83.47311       47.66100       65.24619
C         84.31479       48.74232       65.74975
C         83.49950       50.01475       65.92494
O         82.38124       50.09672       65.43872
C         85.54230       48.93424       64.82996
C         86.62728       49.75130       65.49141
C         87.03824       50.98697       64.96613
C         87.24495       49.26297       66.65764
C         88.03939       51.72611       65.60942
C         88.24054       50.00117       67.29660
C         88.63987       51.23849       66.77683
O         89.59726       51.96332       67.38972
H         83.02775       47.76428       64.32325
H         84.67537       48.46551       66.75962
H         85.21056       49.37895       63.86529
H         85.99064       47.94194       64.60269
H         86.58206       51.38176       64.06726
H         86.95500       48.30690       67.07549
H         88.34707       52.68092       65.20292
H         88.69878       49.60860       68.19586
H         90.02986       51.65933       68.20101
N         83.98066       51.02056       66.70925
C         83.21104       52.22262       67.04018
C         83.02752       53.10860       65.80881
O         83.64139       52.82389       64.78823
C         83.90457       52.93370       68.25219
C         85.25353       53.58542       67.84563
C         82.98810       53.92756       68.98861
C         86.09327       54.03143       69.04182
H         84.88887       50.86549       67.16696
H         82.21335       51.87339       67.38820
H         84.09978       52.12234       68.99031
H         85.06552       54.45557       67.17929
H         85.87245       52.85943       67.28111
H         82.83113       54.86040       68.41772
H         82.01212       53.44860       69.21991
H         83.43592       54.22005       69.95916
H         85.57756       54.81224       69.63514
H         86.31786       53.15877       69.69186
H         87.05224       54.45688       68.67889
N         82.21629       54.20667       65.82889
C         82.04007       55.09190       64.68232
C         80.57283       55.34629       64.38568
O         79.71493       54.99410       65.18431
C         82.73622       56.43458       64.96547
O         82.16299       57.05370       66.08543
H         81.70938       54.44229       66.69090
H         82.51601       54.65784       63.77979
H         82.64036       57.09975       64.07743
H         83.81585       56.24922       65.15670
H         82.56593       57.95899       66.13766
N         80.23452       56.03722       63.26099
C         78.91569       56.58319       62.97129
C         78.59465       57.66377       63.98708
O         77.51700       57.66817       64.56645
C         77.83176       55.49736       62.85626
H         80.98379       56.27306       62.59125
H         78.97828       57.09502       61.98544
H         76.86289       55.95880       62.56731
H         78.11102       54.76144       62.07558
H         77.67901       54.96139       63.81511
N         79.53961       58.61698       64.25954
C         79.36829       59.73581       65.17960
C         79.08335       59.32892       66.62242
O         78.84632       60.22283       67.42469
C         78.28517       60.68148       64.64519
H         80.44552       58.56141       63.76995
H         80.31396       60.32335       65.19337
H         78.22203       61.59069       65.28078
H         78.55179       61.00584       63.61623
H         77.28949       60.19505       64.62378
N         79.08980       58.02792       67.04786
C         78.71611       57.65769       68.41009
C         79.69366       58.21275       69.44714
O         79.37787       58.18037       70.62809
C         78.60598       56.11380       68.52724
C         77.84389       55.61746       69.77041
C         76.39661       56.03012       69.72824
O         75.88013       56.79741       70.70630
O         75.68095       55.66463       68.80821
H         79.31773       57.27594       66.38728
H         77.70842       58.09850       68.57731
H         79.62947       55.67749       68.50671
H         78.06127       55.71549       67.64259
H         78.32174       55.98218       70.70104
H         77.87912       54.50728       69.79323
N         80.90583       58.72818       69.08819
C         81.83512       59.26301       70.05842
H         82.75914       59.60658       69.54541
H         81.37781       60.12848       70.58265
H         82.10971       58.47961       70.79604
H         81.20136       58.73494       68.10283
Ca        80.68220       50.11252       62.80859
O         81.64074       49.94293       60.04563
H         82.56877       50.27956       60.12190
H         81.31320       50.29929       59.18249
O         81.77380       47.51330       61.93280
H         81.45647       46.59095       62.10102
H         82.75886       47.43705       61.87664
O         79.70066       51.93560       64.92944
H         80.12715       52.16128       65.79346
H         78.74000       52.13048       65.06680
O         79.57368       48.52536       64.82670
H         79.69803       48.94074       65.71476
H         80.32487       47.89085       64.72919
O         79.34899       52.25992       61.05619
H         78.39852       52.27845       60.78029
H         79.66055       53.19191       60.93990
O         82.04298       52.52602       62.45563
H         82.76817       51.85480       62.52128
H         82.36310       53.17524       61.78210

Ca 1.0



