%chk=apoCaM-CA-Ng.loop3.water6.frame1027.chk
%nprocshared=20
%mem=10GB
%nosave
#b3lyp/svp scf=(tight,noincore,xqc) Test 
#IOP(5/87=12) Density=Current Pop=(MK,readradii) iop(6/33=2) iop(6/42=6)

apoCaM-CA-Ng.loop3.water6.frame1027 

   0  1 
C         24.18181       52.55158       39.04072
C         23.66167       53.14898       37.76424
O         22.75683       53.97018       37.80137
H         25.15564       53.02135       39.29247
H         23.46838       52.70199       39.87748
H         24.34487       51.45964       38.90894
N         24.20351       52.75537       36.58102
C         23.78202       53.25273       35.27182
C         22.31135       53.01831       35.02746
O         21.61499       53.98847       34.77809
C         24.66500       52.67704       34.13723
C         24.98067       51.20665       34.25110
O         26.20810       50.83214       34.66435
O         24.14839       50.35357       33.99688
H         24.94710       52.04485       36.63154
H         23.93630       54.35580       35.23994
H         25.63585       53.20703       34.21808
H         24.25138       52.91989       33.13147
N         21.75287       51.78316       35.10342
C         20.32158       51.57589       34.96281
C         19.95285       51.30557       33.50525
O         20.55581       50.46184       32.85886
C         19.81806       50.47051       35.90526
C         20.22791       50.72444       37.37330
C         19.63874       49.65854       38.30277
C         20.19342       49.78455       39.73042
N         19.50477       48.86804       40.64074
H         22.33820       50.98811       35.38715
H         19.79007       52.48454       35.31900
H         20.22224       49.49056       35.57879
H         18.70621       50.44182       35.83545
H         19.87541       51.72487       37.71237
H         21.33517       50.70224       37.45220
H         19.89732       48.64532       37.92358
H         18.53291       49.76833       38.30934
H         20.07535       50.82341       40.11057
H         21.28124       49.54536       39.70966
H         20.02043       48.82849       41.54947
H         18.53607       49.22037       40.82039
H         19.45601       47.90490       40.23608
N         18.91685       51.99198       32.95762
C         18.38008       51.82864       31.59876
C         19.13550       52.65120       30.56805
O         19.68862       53.67640       30.91537
C         16.84700       52.09092       31.55379
C         16.30771       53.31854       32.27842
O         17.12524       54.16464       32.95701
O         15.10029       53.48348       32.31108
H         18.42139       52.57214       33.63195
H         18.51106       50.76908       31.28807
H         16.36327       51.21738       32.04300
H         16.50519       52.10520       30.49514
N         19.26271       52.22184       29.27563
C         20.12798       52.90624       28.32551
C         21.50603       52.26643       28.35694
O         21.58900       51.09705       28.00971
H         18.84141       51.32328       28.99348
H         20.13937       53.98443       28.55938
H         19.70388       52.84021       27.29880
N         22.63721       52.89989       28.80616
C         22.66560       54.26639       29.33133
C         23.91955       54.55008       30.17826
O         24.91026       53.84836       30.02653
C         22.53056       55.31216       28.19100
C         23.75388       55.38729       27.31483
N         23.92678       54.52748       26.28671
O         24.58532       56.25955       27.52042
H         23.49377       52.32715       28.85511
H         21.82020       54.33814       30.03226
H         22.37669       56.31396       28.62213
H         21.64509       55.15328       27.54637
H         23.21895       53.80993       26.07532
H         24.75842       54.60234       25.68214
N         23.96668       55.54724       31.11919
C         22.81011       56.35926       31.48197
C         23.07744       57.31502       32.61989
O         23.56846       56.87274       33.64992
H         24.84965       55.67606       31.64059
H         22.01074       55.67759       31.83080
H         22.45048       56.93859       30.61803
N         22.73354       58.64006       32.51746
C         22.93184       59.59828       33.60316
C         21.63883       60.30006       34.00350
O         20.67273       60.28588       33.25503
C         24.01467       60.60214       33.17830
C         24.52698       61.48574       34.28958
C         24.55022       62.88247       34.14060
C         25.03398       60.91457       35.47096
C         25.08784       63.68905       35.15006
C         25.55086       61.72157       36.48260
C         25.59072       63.11166       36.32192
O         26.11775       63.89664       37.28217
H         22.32612       58.98465       31.63503
H         23.28382       59.03838       34.49329
H         23.63842       61.20467       32.32068
H         24.88695       60.01581       32.82164
H         24.17709       63.34686       33.23592
H         25.03265       59.84300       35.61642
H         25.12365       64.76284       35.01648
H         25.93136       61.26152       37.38550
H         26.49188       63.52662       38.09499
N         21.55101       60.86999       35.23940
C         20.31694       61.39681       35.82402
C         19.87569       62.74182       35.26001
O         20.57230       63.34771       34.45803
C         20.37374       61.36898       37.38764
C         20.35489       59.91625       37.94034
C         21.59995       62.12126       37.94823
C         19.06200       59.14511       37.63296
H         22.37524       60.77077       35.83919
H         19.48937       60.73534       35.51820
H         19.47313       61.87807       37.78936
H         20.44329       59.95466       39.04677
H         21.21936       59.34094       37.54280
H         21.71109       63.11583       37.46969
H         21.48972       62.26454       39.04336
H         22.54173       61.55052       37.80509
H         18.92087       58.96867       36.55255
H         19.10329       58.14395       38.10946
H         18.17753       59.68834       38.02724
N         18.62449       63.18784       35.58691
C         17.91683       64.28188       34.93108
C         16.69937       63.69756       34.22611
O         16.28199       62.60486       34.57897
C         17.45828       65.33221       35.96996
O         16.71271       64.71485       36.98904
H         18.07967       62.64014       36.26993
H         18.56340       64.77089       34.17118
H         16.83545       66.10709       35.46620
H         18.34288       65.83135       36.41922
H         16.30331       65.43924       37.53049
N         16.06269       64.37705       33.22734
C         14.79413       63.94674       32.63309
C         13.66641       64.05778       33.65375
O         12.63173       63.42890       33.47861
C         14.87686       62.51738       32.05655
H         16.46768       65.26601       32.89783
H         14.55900       64.62545       31.78475
H         14.00494       62.33138       31.39247
H         15.80431       62.37956       31.46431
H         14.83966       61.74636       32.85606
N         13.83159       64.81482       34.78046
C         12.90855       64.86429       35.90027
C         12.73311       63.46701       36.48435
O         11.61515       63.03387       36.72479
C         11.59452       65.54289       35.49463
H         14.68960       65.36934       34.89570
H         13.38134       65.49987       36.68461
H         10.93364       65.66311       36.37768
H         11.80853       66.55064       35.07592
H         11.06075       64.94995       34.72468
N         13.83324       62.68638       36.68854
C         13.79240       61.31742       37.19218
C         13.65722       61.31767       38.69401
O         12.92256       60.49399       39.22223
C         15.01720       60.52078       36.66862
C         15.04683       59.03620       37.11068
C         15.77422       58.17034       36.10229
O         15.47558       58.27595       34.92548
O         16.59012       57.15587       36.44573
H         14.75034       63.07029       36.42602
H         12.91090       60.79266       36.75347
H         15.98753       61.00365       36.90877
H         14.88729       60.55369       35.56350
H         14.00649       58.65285       37.09150
H         15.42174       58.92457       38.15469
N         14.28579       62.26072       39.44647
C         14.12692       62.32790       40.88065
H         13.05030       62.42778       41.13899
H         14.54008       61.41104       41.34968
H         14.66699       63.21387       41.27555
H         14.86970       62.97625       38.98828
Ca        16.82293       55.68732       34.67374
O         18.25999       58.29695       34.00968
H         17.65448       58.96675       33.60549
H         19.06897       58.80710       34.24623
O         19.84838       56.23098       36.17826
H         20.05171       55.68362       36.97616
H         20.73068       56.57273       35.88721
O         14.37639       54.94258       35.22882
H         14.54343       54.48447       34.37077
H         13.55976       54.51770       35.57735
O         17.82471       53.76641       36.42979
H         17.23094       53.30943       37.07430
H         18.69716       53.81815       36.89124
O         16.92208       56.74989       32.02399
H         16.52251       55.99817       31.52284
H         17.04390       57.45490       31.34448
O         19.59421       55.85058       33.10221
H         19.39891       54.95850       32.74470
H         20.28990       55.65956       33.76910

Ca 1.0



