%chk=apoCaM-CA-Ng.loop4.water5.frame783.chk
%nprocshared=20
%mem=10GB
%nosave
#b3lyp/svp scf=(tight,noincore,xqc) Test 
#IOP(5/87=12) Density=Current Pop=(MK,readradii) iop(6/33=2) iop(6/42=6)

apoCaM-CA-Ng.loop4.water5.frame783 

   -3  1 
C         88.39993      -21.72458       -3.71128
C         87.71746      -22.90666       -4.33454
O         87.62840      -22.97875       -5.55097
H         88.75096      -21.01347       -4.48835
H         87.70640      -21.19718       -3.02625
H         89.27674      -22.07586       -3.12661
N         87.23067      -23.89721       -3.53850
C         86.62886      -25.13422       -4.02519
C         87.64471      -25.91054       -4.85115
O         87.34677      -26.33531       -5.95983
C         85.30564      -24.87822       -4.79073
C         84.26084      -24.15925       -3.97783
O         84.49577      -23.78669       -2.70481
O         83.17816      -23.91000       -4.48222
H         87.33033      -23.79314       -2.51637
H         86.38997      -25.76295       -3.13770
H         84.87737      -25.85536       -5.10415
H         85.50457      -24.28278       -5.70617
N         88.90062      -26.10199       -4.35774
C         89.93683      -26.84348       -5.07190
C         89.54616      -28.32170       -5.08603
O         89.29349      -28.84809       -4.01157
C         91.35766      -26.56566       -4.46417
C         91.54698      -27.05426       -3.00302
C         91.68213      -25.06090       -4.61492
C         92.98203      -26.88376       -2.49494
H         89.12483      -25.67610       -3.44742
H         89.99249      -26.44978       -6.10741
H         92.09825      -27.11646       -5.07632
H         91.33727      -28.14046       -2.95332
H         90.85850      -26.52918       -2.30971
H         91.57033      -24.74855       -5.67495
H         91.00835      -24.43458       -3.99292
H         92.72892      -24.83567       -4.33327
H         93.26808      -25.81531       -2.42559
H         93.06828      -27.31796       -1.47723
H         93.69280      -27.41305       -3.16563
N         89.38710      -29.07415       -6.21821
C         89.70341      -28.66633       -7.58509
C         89.14880      -29.69593       -8.56292
O         89.46069      -30.87380       -8.44538
C         91.23827      -28.56095       -7.77159
C         91.68319      -28.09309       -9.13585
O         92.99979      -27.98911       -9.39755
O         90.87837      -27.79169      -10.00159
H         89.01752      -30.02883       -6.07989
H         89.22932      -27.68459       -7.80069
H         91.69658      -29.55375       -7.57069
H         91.65692      -27.84140       -7.05412
N         88.35187      -29.29748       -9.58978
C         87.83264      -30.21426      -10.59061
C         87.48966      -29.44483      -11.83809
O         86.33755      -29.40541      -12.24311
H         88.16714      -28.28974       -9.69953
H         86.96147      -30.76266      -10.17285
H         88.61283      -30.95111      -10.88322
N         88.49480      -28.80589      -12.49731
C         88.32047      -27.98255      -13.68819
C         89.67923      -27.59241      -14.24118
O         89.92736      -27.83197      -15.41559
C         87.43719      -26.73648      -13.42668
C         87.96362      -25.78928      -12.38123
O         88.14280      -26.20266      -11.11434
O         88.19293      -24.62540      -12.66787
H         89.44787      -28.93499      -12.12319
H         87.80309      -28.58423      -14.46978
H         86.42455      -27.05939      -13.11271
H         87.32047      -26.18929      -14.38940
N         90.63799      -27.04668      -13.43585
C         91.95928      -26.71941      -13.92694
C         91.95540      -25.49278      -14.79792
O         92.98606      -25.22519      -15.39829
H         90.45340      -26.91087      -12.43286
H         92.36574      -27.59569      -14.47878
H         92.64436      -26.51119      -13.07646
N         90.87336      -24.65070      -14.86322
C         90.84761      -23.43838      -15.67340
C         91.90375      -22.42646      -15.22434
O         92.06420      -21.41758      -15.89727
C         90.88223      -23.84891      -17.16598
C         89.54391      -24.54444      -17.51379
C         89.57005      -25.26689      -18.82865
N         90.31626      -26.38739      -18.96902
O         88.87388      -24.87784      -19.75408
H         90.03027      -24.85575      -14.31598
H         89.88154      -22.90518      -15.52331
H         91.74661      -24.51508      -17.35973
H         90.98763      -22.96420      -17.83080
H         88.74831      -23.76542      -17.51394
H         89.26700      -25.30389      -16.75176
H         90.87191      -26.74903      -18.17910
H         90.30976      -26.91638      -19.85307
N         92.58003      -22.57696      -14.04093
C         93.51923      -21.60270      -13.49339
C         93.04000      -21.03451      -12.15484
O         93.71315      -20.15367      -11.64010
C         94.92859      -22.24304      -13.31165
C         94.92068      -23.44305      -12.34122
C         95.52293      -22.66550      -14.65997
H         92.39853      -23.40420      -13.46134
H         93.61672      -20.73664      -14.18490
H         95.60676      -21.47084      -12.88467
H         95.95422      -23.81997      -12.19179
H         94.52298      -23.14679      -11.34762
H         94.31105      -24.28374      -12.73239
H         94.90064      -23.44524      -15.14380
H         95.59082      -21.78866      -15.33772
H         96.54711      -23.07111      -14.51448
N         91.92255      -21.50122      -11.51494
C         91.48931      -21.02849      -10.20120
C         90.07520      -20.46962      -10.29422
O         89.43024      -20.65041      -11.31744
C         91.61575      -22.21795       -9.22712
C         91.25501      -21.91663       -7.79855
N         90.29717      -22.63529       -7.16910
O         91.85365      -21.04116       -7.19203
H         91.36111      -22.25119      -11.93843
H         92.15080      -20.20571       -9.85302
H         92.67599      -22.55434       -9.23521
H         90.99445      -23.05970       -9.60411
H         89.79390      -23.39249       -7.65542
H         90.07229      -22.44659       -6.18290
N         89.55950      -19.69255       -9.29202
C         88.26349      -19.02720       -9.44655
C         88.15204      -17.77976       -8.57120
O         88.99202      -17.56889       -7.70907
C         87.12802      -20.03071       -9.11911
C         85.80108      -19.62364       -9.70609
C         84.71652      -19.24461       -8.89681
C         85.64320      -19.64457      -11.10127
C         83.49814      -18.87801       -9.48346
C         84.42554      -19.29174      -11.68270
C         83.35005      -18.90322      -10.87992
O         82.18350      -18.55941      -11.46196
H         90.16036      -19.47960       -8.48507
H         88.20980      -18.67025      -10.49842
H         87.07506      -20.15503       -8.01325
H         87.35545      -21.03337       -9.54139
H         84.81486      -19.22108       -7.81925
H         86.46439      -19.94861      -11.73878
H         82.67001      -18.57682       -8.85427
H         84.32002      -19.32234      -12.75987
H         81.41247      -18.28036      -10.94875
N         87.12761      -16.89349       -8.75728
C         86.92184      -15.72745       -7.90629
C         85.54553      -15.83546       -7.27881
O         84.56752      -15.67366       -7.99548
C         87.02984      -14.41702       -8.71045
C         88.43481      -14.20066       -9.28463
C         88.50753      -12.89958      -10.03188
O         89.35309      -11.93368       -9.62472
O         87.80465      -12.71168      -11.01244
H         86.45597      -17.05551       -9.52078
H         87.69329      -15.67858       -7.11659
H         86.79490      -13.56431       -8.03402
H         86.28603      -14.42384       -9.53867
H         88.70179      -15.02854       -9.97550
H         89.16921      -14.18304       -8.44988
N         85.34453      -16.15714       -5.96945
C         86.39257      -16.57412       -5.04332
C         87.05577      -15.37500       -4.40252
O         86.36940      -14.56389       -3.79614
C         85.80832      -17.53026       -3.98251
C         85.30073      -18.81367       -4.66715
C         84.74012      -19.80495       -3.69780
O         85.22948      -20.91858       -3.61381
O         83.65666      -19.50522       -2.96128
H         84.36269      -16.24988       -5.66171
H         87.15368      -17.18332       -5.57826
H         84.98710      -17.03035       -3.42194
H         86.60917      -17.80833       -3.26166
H         86.14601      -19.28520       -5.21751
H         84.50291      -18.57348       -5.39961
N         88.40848      -15.21977       -4.48471
C         89.13067      -14.11168       -3.89365
H         89.70013      -13.58179       -4.68572
H         88.45798      -13.38284       -3.39567
H         89.84724      -14.50166       -3.14002
H         88.96858      -15.93096       -4.97857
Ca        82.78606      -21.17352       -1.71776
O         80.39553      -22.89903       -3.47709
H         79.97785      -23.75864       -3.21869
H         80.40045      -22.91399       -4.46707
O         82.23739      -20.96221       -5.52780
H         83.11631      -21.27321       -5.86148
H         82.22508      -19.99237       -5.72665
O         80.33493      -19.64229       -2.76482
H         80.45165      -18.82339       -3.30886
H         79.58970      -20.12692       -3.20057
O         81.13328      -21.21689        0.74001
H         80.68118      -21.84181        0.11883
H         80.94633      -20.31896        0.36632
O         81.93207      -24.22439       -0.94411
H         81.71356      -25.03090       -1.47520
H         82.84984      -24.38752       -0.61046

Ca 1.0



