%chk=apoCaM-CA-Ng.loop4.water5.frame949.chk
%nprocshared=20
%mem=10GB
%nosave
#b3lyp/svp scf=(tight,noincore,xqc) Test 
#IOP(5/87=12) Density=Current Pop=(MK,readradii) iop(6/33=2) iop(6/42=6)

apoCaM-CA-Ng.loop4.water5.frame949 

   -3  1 
C         62.30847      106.33252       64.40980
C         62.54893      107.78142       64.10762
O         63.52989      108.10919       63.45671
H         61.33209      106.02367       63.97752
H         63.10629      105.69512       63.97401
H         62.27684      106.18171       65.50834
N         61.65004      108.70797       64.53736
C         61.71742      110.13621       64.25215
C         61.70743      110.39442       62.75443
O         62.45971      111.22657       62.27602
C         62.90960      110.81658       64.95855
C         62.82822      110.68037       66.44945
O         63.73141      110.14568       67.06573
O         61.77180      111.17763       67.11926
H         60.82892      108.37625       65.06764
H         60.78401      110.59372       64.65029
H         62.89362      111.90068       64.72957
H         63.86967      110.39458       64.58615
N         60.85076      109.70692       61.95398
C         60.69135      109.93737       60.52285
C         59.21937      110.26405       60.31948
O         58.40426      109.38171       60.55245
C         61.15572      108.66476       59.74046
C         62.70224      108.49086       59.79015
C         60.65136      108.60540       58.28647
C         63.49089      109.47125       58.90669
H         60.25733      108.98155       62.38639
H         61.31213      110.78408       60.18963
H         60.70522      107.78737       60.25645
H         62.96385      107.46769       59.44435
H         63.05250      108.58546       60.83903
H         60.99993      109.47131       57.69174
H         61.00755      107.66964       57.80414
H         59.54305      108.59001       58.25615
H         63.26044      109.31036       57.83266
H         63.27187      110.52392       59.16079
H         64.57994      109.29700       59.03355
N         58.75245      111.49812       59.96185
C         59.57390      112.68264       59.70455
C         58.78697      113.96529       59.98935
O         57.56704      113.93097       60.07632
C         60.10494      112.59333       58.25884
C         60.83269      113.80133       57.76348
O         60.42078      114.37167       56.76808
O         61.95144      114.23735       58.37058
H         57.72672      111.59494       59.91778
H         60.39873      112.71735       60.44914
H         59.23805      112.41667       57.58449
H         60.78677      111.72678       58.16737
N         59.45653      115.11838       60.28705
C         58.79731      116.32323       60.76807
C         59.13950      117.57239       59.99197
O         58.70156      118.62863       60.42661
H         60.48734      115.11824       60.27614
H         59.14008      116.48842       61.81261
H         57.69223      116.21540       60.79136
N         59.89895      117.56393       58.85542
C         60.27884      118.81246       58.18926
C         60.84014      118.69125       56.76714
O         60.99415      119.74227       56.16316
C         61.25066      119.61959       59.09868
C         62.39972      118.79532       59.63313
O         63.20988      118.27873       58.88640
O         62.53331      118.62114       60.96185
H         60.20349      116.66018       58.48515
H         59.35196      119.40973       58.03502
H         60.69330      119.99307       59.98094
H         61.63373      120.51704       58.56592
N         61.13911      117.51831       56.13036
C         61.63568      117.47114       54.75714
C         63.01372      118.09066       54.58272
O         63.46944      118.18890       53.45309
H         61.00330      116.62427       56.59660
H         60.90685      117.99590       54.10129
H         61.69736      116.41406       54.41734
N         63.73623      118.52283       55.65557
C         65.02959      119.19119       55.60399
C         66.15377      118.28711       55.12983
O         67.26391      118.77544       54.96157
C         64.93730      120.55141       54.87552
C         63.77141      121.37305       55.46395
C         63.71272      122.81525       55.04981
N         62.69500      123.58668       55.50026
O         64.57246      123.29952       54.32939
H         63.35073      118.39775       56.58947
H         65.30921      119.44904       56.65116
H         64.79301      120.43108       53.78052
H         65.89549      121.08880       55.04874
H         63.82692      121.35756       56.57465
H         62.82616      120.89911       55.14099
H         61.96312      123.18535       56.10732
H         62.63340      124.58284       55.24603
N         65.97639      116.93750       55.02752
C         67.05281      115.99522       54.75094
C         67.34749      115.12496       55.97393
O         68.25901      114.31599       55.89892
C         66.70203      115.11429       53.51413
C         65.45184      114.23627       53.73221
C         66.51393      115.98235       52.26300
H         65.05012      116.53855       55.23040
H         67.99652      116.54089       54.52859
H         67.55919      114.43134       53.32198
H         64.53771      114.84751       53.88026
H         65.28183      113.58952       52.84533
H         65.58368      113.57197       54.61207
H         67.43268      116.57411       52.06694
H         66.31740      115.34136       51.37711
H         65.65820      116.67936       52.38865
N         66.59440      115.20877       57.11607
C         66.75347      114.31234       58.25206
C         66.83364      115.07969       59.57515
O         66.35526      116.19816       59.67454
C         65.51447      113.39092       58.25029
C         65.44103      112.47102       59.43465
N         64.42508      112.58686       60.31785
O         66.30496      111.62540       59.60905
H         65.80685      115.86569       57.16835
H         67.66499      113.68426       58.14297
H         65.50223      112.78184       57.31958
H         64.60861      114.03396       58.23853
H         63.68556      113.29535       60.19585
H         64.39475      111.97406       61.14031
N         67.36709      114.45147       60.66399
C         67.30939      114.94172       62.04425
C         68.11502      114.00080       62.92949
O         67.93994      112.79369       62.83895
C         65.84171      115.00672       62.52642
C         65.71978      115.14641       64.03096
C         66.28232      116.23045       64.72648
C         65.05309      114.14415       64.75456
C         66.18897      116.29443       66.12338
C         64.95192      114.21368       66.14356
C         65.52407      115.28311       66.83533
O         65.43211      115.32401       68.17981
H         67.80227      113.53235       60.49830
H         67.75513      115.95719       62.12060
H         65.34091      114.06599       62.22474
H         65.31429      115.84300       62.02064
H         66.80692      117.01296       64.19351
H         64.61878      113.30030       64.23889
H         66.63790      117.12553       66.65236
H         64.43606      113.42812       66.68150
H         65.82411      116.03723       68.70280
N         69.01786      114.50712       63.81861
C         69.94418      113.67908       64.57222
C         69.65737      113.76125       66.07493
O         70.22128      114.63289       66.72209
C         71.36931      114.15416       64.21134
C         72.47607      113.27375       64.79933
C         73.82050      113.76691       64.34417
O         74.23264      115.00782       64.66887
O         74.54316      113.04850       63.67223
H         69.08802      115.52975       63.93363
H         69.88461      112.63646       64.22752
H         71.50742      115.20946       64.54056
H         71.46719      114.13004       63.10278
H         72.32725      112.22742       64.45371
H         72.44298      113.28985       65.90884
N         68.79482      112.92283       66.73760
C         67.99005      111.86046       66.12537
C         68.84328      110.78155       65.48475
O         70.03243      110.70213       65.76497
C         67.00610      111.24042       67.16273
C         67.71361      110.46576       68.29820
C         66.81305      110.22581       69.48819
O         67.07180      110.79097       70.53898
O         65.74484      109.40182       69.45785
H         68.67259      113.10050       67.74691
H         67.38185      112.34949       65.33584
H         66.28115      110.56395       66.66279
H         66.43293      112.08582       67.60253
H         68.56061      111.07952       68.66677
H         68.13911      109.50972       67.92401
N         68.29496      109.94993       64.55664
C         69.05573      108.95114       63.83092
H         70.12102      108.92059       64.14097
H         68.61653      107.94750       63.99455
H         69.01468      109.18107       62.74568
H         67.29607      110.05313       64.32050
Ca        65.10601      107.91044       67.89438
O         64.65709      105.14695       66.62432
H         63.92883      104.49491       66.46763
H         65.43708      104.76835       66.14667
O         64.80054      107.01133       71.22923
H         65.71343      107.38905       71.29376
H         64.26676      107.54702       71.86813
O         66.90948      105.68589       69.09479
H         67.46453      106.09779       69.80360
H         67.38572      105.89856       68.25342
O         62.45903      108.80410       69.75779
H         62.33188      108.91725       70.73323
H         61.59631      108.44060       69.43546
O         66.87195      107.77257       65.82462
H         67.14802      106.82459       65.88105
H         66.08721      107.77314       65.22057

Ca 1.0



