%chk=apoCaM-CA-Ng.loop4.water6.frame526.chk
%nprocshared=20
%mem=10GB
%nosave
#b3lyp/svp scf=(tight,noincore,xqc) Test 
#IOP(5/87=12) Density=Current Pop=(MK,readradii) iop(6/33=2) iop(6/42=6)

apoCaM-CA-Ng.loop4.water6.frame526 

   -3  1 
C         84.16839      -17.57934       70.31362
C         83.60223      -18.84349       70.88260
O         83.35444      -18.90057       72.07598
H         85.17391      -17.79268       69.89085
H         83.50652      -17.19453       69.51182
H         84.27739      -16.80563       71.10345
N         83.42216      -19.92881       70.07741
C         82.97226      -21.23897       70.53989
C         81.54008      -21.13984       71.05050
O         81.29661      -21.43710       72.20848
C         83.95204      -21.82819       71.60269
C         85.40456      -21.62071       71.24579
O         85.85785      -20.48934       71.18955
O         86.24335      -22.64472       71.03316
H         83.66353      -19.83941       69.07852
H         82.98536      -21.92772       69.66630
H         83.72647      -22.90880       71.73729
H         83.80630      -21.33734       72.58581
N         80.54201      -20.69772       70.22734
C         79.18530      -20.37457       70.67909
C         78.17049      -21.34671       70.08247
O         78.13175      -21.46164       68.86568
C         78.81402      -18.91862       70.23398
C         79.77082      -17.88056       70.86557
C         77.34740      -18.57726       70.59463
C         79.62968      -16.47219       70.28610
H         80.76882      -20.52767       69.23549
H         79.14605      -20.40166       71.78027
H         78.92047      -18.86893       69.12718
H         80.82170      -18.18728       70.68945
H         79.58373      -17.83293       71.95529
H         77.05977      -17.57366       70.22678
H         76.63765      -19.28314       70.11652
H         77.19505      -18.61530       71.69440
H         78.62353      -16.04616       70.46733
H         80.36794      -15.80186       70.77477
H         79.83436      -16.48802       69.19484
N         77.23962      -22.01688       70.83361
C         77.16490      -21.99396       72.29138
C         78.24150      -22.90174       72.84581
O         79.07578      -22.43399       73.60733
C         75.72425      -22.26014       72.80778
C         75.05919      -23.55088       72.40686
O         74.06317      -23.52255       71.70129
O         75.48633      -24.73127       72.88888
H         76.53547      -22.57576       70.32727
H         77.32912      -20.96031       72.66442
H         75.09633      -21.42651       72.41759
H         75.70738      -22.18442       73.91737
N         78.30357      -24.21054       72.47257
C         79.35079      -25.12231       72.88783
C         78.81441      -26.07172       73.91802
O         78.74430      -27.26692       73.67100
H         77.58948      -24.58783       71.83550
H         80.21265      -24.58792       73.34211
H         79.72873      -25.65702       71.98912
N         78.45806      -25.57963       75.13575
C         77.97324      -26.39380       76.24133
C         76.60771      -25.93893       76.74494
O         76.12222      -26.54050       77.69363
C         79.03067      -26.42867       77.37870
C         79.47063      -25.11344       77.98088
O         79.05837      -24.04206       77.57214
O         80.37068      -25.12624       78.98196
H         78.57883      -24.56896       75.29177
H         77.84569      -27.44986       75.91693
H         79.94481      -26.91937       76.98088
H         78.64062      -27.06768       78.20030
N         75.90739      -24.91273       76.17046
C         74.61408      -24.47523       76.68149
C         74.71230      -23.79800       78.03891
O         73.68183      -23.45584       78.59950
H         76.27768      -24.42976       75.34075
H         73.93099      -25.34982       76.73082
H         74.17108      -23.73377       75.98024
N         75.92401      -23.51154       78.59271
C         76.14646      -22.77939       79.82804
C         75.54727      -21.39001       79.74183
O         74.94119      -20.90669       80.68809
C         75.76296      -23.60232       81.07333
C         76.61310      -24.88905       81.14093
C         76.38308      -25.71284       82.38239
N         77.10038      -26.84468       82.57359
O         75.56507      -25.36641       83.22217
H         76.77291      -23.75226       78.07806
H         77.24450      -22.60036       79.90007
H         74.68000      -23.85043       81.06203
H         75.98158      -22.99479       81.97907
H         77.68927      -24.60788       81.12374
H         76.40232      -25.52452       80.25461
H         77.79920      -27.14725       81.87828
H         76.96424      -27.41722       83.41971
N         75.75190      -20.67589       78.60155
C         75.43680      -19.26717       78.41944
C         76.69703      -18.48909       78.05094
O         76.59440      -17.28290       77.88220
C         74.37190      -19.06951       77.29761
C         74.78126      -19.71947       75.96004
C         72.99849      -19.58533       77.73489
H         76.20214      -21.16239       77.81234
H         75.04541      -18.82564       79.36314
H         74.25373      -17.97634       77.12299
H         74.83000      -20.82543       76.04817
H         74.03612      -19.47770       75.17331
H         75.76915      -19.34322       75.62074
H         72.67404      -19.05613       78.65653
H         72.24780      -19.37671       76.94190
H         73.02409      -20.67679       77.93101
N         77.90333      -19.10878       77.85573
C         79.07318      -18.42396       77.33265
C         80.23865      -18.57768       78.30759
O         80.08937      -19.24102       79.32308
C         79.37256      -19.06135       75.96169
C         80.26616      -18.28120       75.03695
N         80.74317      -18.89017       73.93899
O         80.52464      -17.10383       75.22968
H         78.01335      -20.11913       78.00614
H         78.84893      -17.34545       77.19382
H         78.42450      -19.19217       75.39279
H         79.78889      -20.07870       76.13612
H         80.50306      -19.87109       73.76032
H         81.34387      -18.37906       73.28188
N         81.42169      -17.94205       78.07923
C         82.53407      -17.96430       79.02377
C         83.56940      -16.90856       78.66834
O         83.54208      -16.37227       77.56969
C         83.20583      -19.36026       79.12407
C         84.10182      -19.69112       77.94135
C         83.59665      -19.79146       76.63286
C         85.48000      -19.88921       78.15345
C         84.45625      -20.06830       75.56278
C         86.33277      -20.17319       77.08489
C         85.82793      -20.25855       75.78639
O         86.66926      -20.52198       74.76677
H         81.48584      -17.34190       77.25962
H         82.10353      -17.68279       80.00973
H         82.44794      -20.15877       79.26173
H         83.82977      -19.35552       80.04413
H         82.54429      -19.64973       76.43372
H         85.90171      -19.81987       79.14826
H         84.05508      -20.13147       74.56164
H         87.38966      -20.32217       77.26756
H         86.36637      -20.58646       73.85103
N         84.50905      -16.54094       79.58137
C         85.51896      -15.53699       79.28505
C         86.88674      -16.12262       79.58580
O         87.17366      -16.32544       80.75715
C         85.25193      -14.26449       80.11388
C         83.89682      -13.63254       79.74718
C         83.63026      -12.40417       80.56623
O         83.53152      -12.49449       81.90645
O         83.48141      -11.32199       80.02160
H         84.48603      -16.96145       80.52232
H         85.45873      -15.23807       78.22555
H         86.05549      -13.52215       79.91421
H         85.26185      -14.51801       81.19734
H         83.06972      -14.35153       79.93006
H         83.89855      -13.36867       78.66597
N         87.78454      -16.49624       78.62285
C         87.54533      -16.45888       77.17974
C         87.40164      -15.04838       76.62578
O         87.62951      -14.07995       77.33886
C         88.63788      -17.23927       76.38871
C         90.06895      -16.65464       76.40857
C         90.78025      -16.82804       77.71961
O         90.97236      -17.94776       78.16862
O         91.22424      -15.75401       78.39918
H         88.64643      -16.93439       78.96822
H         86.58678      -16.99519       76.99907
H         88.32253      -17.26508       75.32432
H         88.66856      -18.29605       76.72778
H         90.04472      -15.58323       76.11670
H         90.67382      -17.19685       75.65027
N         86.99580      -14.87194       75.33640
C         86.81392      -13.56512       74.74539
H         86.04185      -12.99845       75.30758
H         87.77263      -13.00591       74.75327
H         86.47431      -13.67346       73.69224
H         86.79028      -15.69495       74.75006
Ca        88.32389      -21.89515       70.54073
O         88.64154      -22.62480       73.36097
H         88.89595      -22.13000       74.17930
H         89.50388      -22.89334       72.95496
O         89.58705      -24.37868       69.95147
H         88.68966      -24.34611       69.53288
H         90.12436      -23.72523       69.43602
O         90.90648      -20.33756       71.52248
H         91.54154      -20.04904       70.81991
H         91.17776      -21.26523       71.73712
O         87.39265      -21.93051       67.65542
H         87.80630      -22.80162       67.43074
H         86.53922      -22.16724       68.09835
O         89.36511      -19.54432       68.41853
H         89.77234      -18.64555       68.33638
H         90.12789      -20.17101       68.34049
O         88.28123      -18.67899       72.10140
H         87.69026      -17.93651       72.38395
H         88.65561      -19.03388       72.94667

Ca 1.0



