%chk=apoCaM-CA-Ng.loop3.water5.frame441.chk
%nprocshared=20
%mem=10GB
%nosave
#b3lyp/svp scf=(tight,noincore,xqc) Test 
#IOP(5/87=12) Density=Current Pop=(MK,readradii) iop(6/33=2) iop(6/42=6)

apoCaM-CA-Ng.loop3.water5.frame441 

   0  1 
C         91.57450       57.11401       83.67497
C         91.03660       55.77352       83.27421
O         89.93876       55.70093       82.74159
H         92.53368       57.30264       83.14877
H         90.85655       57.92239       83.42094
H         91.75370       57.12641       84.77116
N         91.77210       54.65424       83.52136
C         91.34697       53.29572       83.20903
C         90.08692       52.95504       83.99784
O         89.06652       52.59256       83.42887
C         91.22726       53.09963       81.67860
C         91.07349       51.65854       81.25941
O         91.05568       50.66107       82.16613
O         90.99219       51.38645       80.07248
H         92.69073       54.76682       83.97851
H         92.15607       52.61304       83.55709
H         92.16118       53.47369       81.20441
H         90.37541       53.68904       81.28057
N         90.12593       53.04740       85.35509
C         89.02118       52.69076       86.24695
C         87.98476       53.80241       86.39026
O         87.02265       53.60594       87.12064
C         89.60855       52.34526       87.63015
C         90.50093       51.09527       87.54027
C         91.27703       50.87210       88.83694
C         92.10256       49.58211       88.75689
N         92.94741       49.43169       89.93959
H         91.02426       53.32967       85.77909
H         88.50766       51.78042       85.86403
H         88.80127       52.13773       88.36660
H         90.19345       53.21991       87.99359
H         91.24824       51.20228       86.72448
H         89.85916       50.21623       87.30891
H         90.57937       50.80941       89.69971
H         91.95837       51.73900       88.98661
H         92.75093       49.59951       87.85218
H         91.41213       48.71258       88.67550
H         92.36401       49.44039       90.80719
H         93.46067       48.52298       89.87979
H         93.64499       50.21079       89.97476
N         88.10352       54.99024       85.73359
C         87.14019       56.08447       85.84473
C         85.75987       55.60166       85.40721
O         85.66626       54.98533       84.35932
C         87.65321       57.27169       84.99082
C         86.92340       58.56012       85.23547
O         87.58319       59.62212       85.73516
O         85.74726       58.67042       84.95776
H         88.91935       55.13306       85.12486
H         87.10890       56.42843       86.90282
H         87.62866       57.01398       83.90898
H         88.71246       57.46068       85.27262
N         84.65589       55.78984       86.19012
C         83.32722       55.26991       85.86480
C         82.65093       55.87165       84.63432
O         81.56168       55.42047       84.31028
H         84.76986       56.27535       87.09105
H         82.65047       55.45359       86.72810
H         83.40586       54.16939       85.72935
N         83.21308       56.87561       83.90448
C         82.63808       57.45324       82.69076
C         83.57862       57.24100       81.50198
O         83.31530       57.78638       80.43879
C         82.44683       58.98211       82.86116
C         81.54896       59.43607       84.01509
N         80.20643       58.87645       83.93198
O         82.12972       59.13123       85.24343
H         84.11275       57.25018       84.20442
H         81.65184       56.99907       82.45043
H         81.99786       59.38883       81.93432
H         83.43742       59.46765       82.98869
H         79.78763       59.15062       83.01423
H         79.62917       59.33293       84.67476
N         84.71408       56.48926       81.61060
C         85.72516       56.40647       80.57423
C         86.51504       57.69693       80.43903
O         87.33149       57.77737       79.53179
H         84.89203       55.95660       82.45916
H         85.23989       56.13017       79.61479
H         86.45583       55.60886       80.83435
N         86.36381       58.73309       81.31620
C         87.06179       60.00519       81.19429
C         86.13826       61.11036       81.65386
O         85.66714       61.07439       82.78401
C         88.38658       59.98817       81.97931
C         89.08803       61.33190       81.93432
C         89.40514       61.94338       80.70653
C         89.42251       61.99276       83.12917
C         90.02862       63.19404       80.67746
C         90.05765       63.23821       83.09681
C         90.35883       63.84494       81.86937
O         90.96468       65.04861       81.82267
H         85.72726       58.62601       82.11905
H         87.31229       60.18144       80.12649
H         89.05083       59.21659       81.53340
H         88.19205       59.69705       83.03161
H         89.16116       61.46343       79.76841
H         89.19603       61.54437       84.08826
H         90.25474       63.65814       79.72555
H         90.31275       63.73145       84.02626
H         91.21483       65.53089       82.62362
N         85.82047       62.12479       80.80772
C         84.78424       63.09470       81.11157
C         83.46221       62.40188       80.84528
O         82.66248       62.24559       81.75431
C         84.96371       64.38124       80.24875
C         86.37342       65.01695       80.41732
C         83.85512       65.41004       80.53518
C         86.72043       65.48073       81.83502
H         86.24426       62.13819       79.86677
H         84.84527       63.39504       82.18075
H         84.88093       64.10704       79.17439
H         86.45579       65.89032       79.73449
H         87.14844       64.28709       80.10057
H         82.85653       64.98346       80.30524
H         83.85865       65.72353       81.59922
H         83.99297       66.30627       79.89308
H         87.74319       65.91357       81.83538
H         86.01757       66.26433       82.18294
H         86.71545       64.63090       82.54648
N         83.20644       61.91328       79.59911
C         82.00441       61.17706       79.23732
C         80.75498       62.00183       79.45227
O         79.83385       61.50614       80.08718
C         82.09239       60.69402       77.77813
O         82.22149       61.77759       76.89636
H         83.92345       62.05022       78.87103
H         81.93588       60.25747       79.85433
H         81.18309       60.10946       77.51680
H         82.97839       60.01997       77.69774
H         82.71978       61.44414       76.10546
N         80.65212       63.27038       78.95452
C         79.43854       64.07789       79.02089
C         78.94278       64.36338       80.43646
O         77.86053       64.92414       80.54711
C         78.33980       63.40814       78.17887
H         81.46339       63.67880       78.46646
H         79.63793       65.06149       78.54058
H         78.70522       63.26297       77.13947
H         78.04276       62.42327       78.59276
H         77.43730       64.05426       78.13320
N         79.65866       64.04496       81.55912
C         79.13713       64.25428       82.90570
C         79.93660       65.28553       83.66830
O         81.06302       65.59040       83.30206
C         79.13244       62.92857       83.67283
H         80.60109       63.64621       81.47143
H         78.09120       64.62624       82.85658
H         78.51399       62.17853       83.13685
H         80.16695       62.53130       83.76315
H         78.71711       63.06627       84.69406
N         79.35548       65.90440       84.73850
C         79.98850       66.89842       85.59923
C         80.40203       68.17847       84.86008
O         80.96545       69.05832       85.49515
C         81.16186       66.22873       86.36401
C         81.65836       66.96151       87.63144
C         80.64716       66.96766       88.75369
O         80.91891       66.31420       89.89998
O         79.59467       67.57635       88.65150
H         78.38743       65.64030       84.98000
H         79.22329       67.18958       86.34318
H         82.01289       66.09122       85.66335
H         80.84118       65.21765       86.70140
H         81.98685       67.99624       87.41462
H         82.54907       66.40682       87.99732
N         80.14270       68.38094       83.53390
C         80.57477       69.57525       82.83972
H         81.68336       69.64669       82.86672
H         80.25227       69.53335       81.77699
H         80.13085       70.47646       83.31195
H         79.62151       67.68905       82.98156
Ca        83.83859       60.64101       85.38897
O         83.68796       58.70054       87.61274
H         82.78929       59.05885       87.82264
H         83.90782       58.11739       88.38044
O         82.86673       62.20627       87.54684
H         82.82152       62.94403       88.20397
H         82.01555       62.26239       87.04356
O         85.78676       60.99958       88.11628
H         86.77647       60.98570       88.13590
H         85.51579       60.50962       88.93292
O         83.28702       63.42214       84.57897
H         82.57548       62.77684       84.33995
H         83.13339       64.19219       83.97825
O         86.57087       62.70725       85.31870
H         87.35165       62.72117       85.92746
H         86.59554       63.58614       84.86386

Ca 1.0



