%chk=apoCaM-CA-Ng.loop4.water4.frame241.chk
%nprocshared=20
%mem=10GB
%nosave
#b3lyp/svp scf=(tight,noincore,xqc) Test 
#IOP(5/87=12) Density=Current Pop=(MK,readradii) iop(6/33=2) iop(6/42=6)

apoCaM-CA-Ng.loop4.water4.frame241 

   -3  1 
C          9.58264       23.55887       83.82410
C          8.35096       23.86313       82.97267
O          7.26700       23.23057       83.57454
H         10.47658       24.07304       83.41600
H          9.41346       23.91648       84.86225
H          9.76527       22.46242       83.84809
N          8.52117       23.40408       81.57707
C          7.73727       24.15115       80.55546
C          7.45074       25.61086       80.89657
O          6.30109       25.99621       80.98956
C          6.56319       23.33123       79.94724
C          5.41964       22.86422       80.81289
O          4.60475       23.73193       81.43935
O          5.16764       21.67093       80.87365
H          9.52951       23.53941       81.32538
H          8.38856       24.24383       79.65267
H          7.01572       22.42519       79.48433
H          6.12353       23.92901       79.11877
N          8.50080       26.47805       81.00561
C          8.47307       27.93072       81.21681
C          7.76946       28.66921       80.07866
O          8.45534       29.29729       79.28350
C          7.95336       28.36650       82.61873
C          8.16443       29.89129       82.86413
C          8.60191       27.54750       83.74501
C          9.63076       30.35328       82.89248
H          9.44207       26.07104       80.88565
H          9.54325       28.22493       81.17119
H          6.86215       28.16785       82.67734
H          7.70560       30.16403       83.83909
H          7.63617       30.47201       82.07851
H          8.33497       26.47889       83.64136
H          9.70762       27.63207       83.73025
H          8.22267       27.89033       84.72957
H         10.15002       30.16655       81.93240
H          9.66794       31.44780       83.06518
H         10.19039       29.85763       83.71233
N          6.41092       28.65709       79.94052
C          5.71722       29.30125       78.83754
C          5.55565       30.80179       79.07266
O          6.01258       31.54465       78.21534
C          4.39397       28.56872       78.50085
C          4.64230       27.13401       78.11253
O          4.07206       26.13488       78.81203
O          5.35073       26.86773       77.15467
H          5.83097       28.16949       80.63047
H          6.32664       29.17630       77.91200
H          3.90045       29.07717       77.64475
H          3.68818       28.56549       79.34643
N          4.93612       31.37448       80.15193
C          4.35051       30.64921       81.27354
C          3.62643       31.55838       82.26214
O          3.76966       32.76875       82.16130
H          4.87353       32.40364       80.14130
H          5.13513       30.08211       81.81739
H          3.62279       29.97170       80.86025
N          2.83254       31.09733       83.28117
C          2.43160       29.72155       83.56111
C          3.62493       28.81068       83.83834
O          3.84907       27.89253       83.06384
C          1.46540       29.19704       82.45483
C          0.71888       27.94269       82.82536
O          0.88038       27.36012       84.02771
O         -0.06298       27.45380       82.02512
H          2.43492       31.80787       83.91598
H          1.80495       29.74232       84.48050
H          1.98211       28.98028       81.50941
H          0.69906       29.97670       82.25589
N          4.42242       28.92455       84.94274
C          4.27634       29.89865       86.01396
C          4.81644       31.25821       85.65004
O          5.27003       31.45903       84.53540
H          5.15228       28.20832       85.07092
H          4.88244       29.55712       86.87937
H          3.22070       29.95056       86.35579
N          4.85759       32.23671       86.59517
C          5.33982       33.58456       86.32551
C          6.73450       33.79344       86.89359
O          7.26599       34.88462       86.71719
C          4.33882       34.64600       86.85493
C          2.98058       34.65762       86.11768
C          2.02182       33.53239       86.43861
N          0.85777       33.43489       85.75653
O          2.26511       32.72437       87.32030
H          4.57981       32.00456       87.56117
H          5.45296       33.74700       85.23121
H          4.79418       35.64165       86.65703
H          4.19229       34.56237       87.95438
H          3.18180       34.67526       85.02495
H          2.44816       35.59821       86.37881
H          0.62722       34.10824       85.01132
H          0.18946       32.67843       85.96608
N          7.42133       32.79762       87.52814
C          8.78995       32.94332       88.00847
C          8.88100       32.85753       89.52296
O          9.96671       33.06615       90.03618
C          9.75044       31.95190       87.29474
C          9.89814       32.32892       85.81595
C          9.31464       30.48359       87.42195
H          6.96799       31.88348       87.67270
H          9.17006       33.96595       87.78428
H         10.75933       32.05587       87.75159
H          8.92624       32.24722       85.28457
H         10.26887       33.37251       85.72155
H         10.64259       31.66489       85.32988
H          8.34964       30.30329       86.90353
H         10.07094       29.82137       86.94878
H          9.21504       30.19767       88.48926
N          7.77252       32.67038       90.30432
C          7.79758       32.90328       91.74580
C          7.30765       31.72193       92.55964
O          7.28326       31.86406       93.77826
C          6.87138       34.10782       92.02743
C          7.24001       35.31064       91.19289
N          6.37135       35.80252       90.27607
O          8.33424       35.83493       91.33416
H          6.85516       32.49724       89.87601
H          8.82224       33.15482       92.09347
H          6.90421       34.38562       93.10349
H          5.82824       33.81028       91.78382
H          5.44768       35.36748       90.13350
H          6.62433       36.61552       89.69574
N          6.88063       30.55064       92.00808
C          6.19185       29.52382       92.79031
C          6.07585       28.21952       92.02662
O          5.56396       28.22199       90.91386
C          4.72951       29.96087       93.09104
C          4.58073       31.16059       93.98818
C          4.96060       31.09331       95.33950
C          4.04668       32.35733       93.48292
C          4.81382       32.21047       96.16819
C          3.90938       33.47414       94.31013
C          4.28988       33.40622       95.65387
O          4.14561       34.49255       96.43899
H          6.98562       30.40319       90.99096
H          6.74092       29.32697       93.73880
H          4.17546       29.12587       93.57580
H          4.23318       30.16000       92.11454
H          5.36618       30.17665       95.74963
H          3.74740       32.43095       92.44472
H          5.10777       32.14597       97.20818
H          3.50606       34.39328       93.90441
H          4.39164       34.48772       97.37486
N          6.45238       27.04912       92.61768
C          6.14131       25.71116       92.12059
C          6.70891       25.36868       90.75004
O          6.39162       24.29051       90.26632
C          4.63097       25.36305       92.27835
C          3.62801       26.15373       91.42738
C          2.23445       25.63297       91.62900
O          1.60071       25.19009       90.68466
O          1.67001       25.66850       92.85179
H          6.91632       27.09377       93.53920
H          6.62786       24.98605       92.81231
H          4.35707       25.48699       93.34994
H          4.50865       24.28448       92.03210
H          3.90533       26.06935       90.35514
H          3.60821       27.21654       91.73103
N          7.63230       26.15203       90.11473
C          8.27459       25.73734       88.86875
C          9.70980       25.29523       89.11234
O         10.33575       24.83341       88.16727
C          8.25052       26.87262       87.82415
C          6.85503       27.44435       87.55252
C          5.89300       26.39985       87.07538
O          6.10902       25.78715       86.04241
O          4.78139       26.14007       87.78821
H          7.96309       27.01945       90.56032
H          7.74804       24.85606       88.44065
H          8.68139       26.49561       86.86931
H          8.89224       27.70543       88.18145
H          6.93931       28.24042       86.78389
H          6.46359       27.91247       88.47849
N         10.29906       25.39067       90.34192
C         11.65324       24.95780       90.61487
H         12.25404       25.82790       90.95212
H         11.63473       24.19849       91.42454
H         12.14496       24.51032       89.72645
H          9.78625       25.78975       91.13990
Ca         5.54722       24.62317       83.22601
O          2.50139       25.62106       81.71832
H          2.14080       25.07444       80.97638
H          3.32627       26.02532       81.35003
O          3.07256       25.45773       84.99916
H          3.05681       25.82366       85.91747
H          2.12448       25.25346       84.80523
O          4.85379       22.85106       85.62084
H          4.61199       23.42040       86.39365
H          4.00549       22.41148       85.36260
O          2.09418       22.96443       83.30962
H          1.30415       22.68349       82.78361
H          2.79434       22.30296       83.08122

Ca 1.0



