%chk=apoCaM-CA-Ng.loop2.water4.frame1033.chk
%nprocshared=20
%mem=10GB
%nosave
#b3lyp/svp scf=(tight,noincore,xqc) Test 
#IOP(5/87=12) Density=Current Pop=(MK,readradii) iop(6/33=2) iop(6/42=6)

apoCaM-CA-Ng.loop2.water4.frame1033 

   -2  1 
C          4.98859       48.06663       70.46676
C          4.32120       47.06355       69.56115
O          5.00982       46.12921       69.17695
H          5.87100       48.48528       69.93816
H          4.36879       48.91852       70.78301
H          5.34061       47.54785       71.38274
N          3.02243       47.12557       69.13940
C          2.01825       48.13191       69.48714
C          1.57676       48.88219       68.23507
O          2.16242       48.67375       67.18166
C          0.84175       47.46759       70.24785
C          0.08299       46.42842       69.47026
O          0.67418       45.27126       69.12038
O         -1.09626       46.60366       69.20910
H          2.71922       46.37898       68.49584
H          2.40947       48.89504       70.17739
H          0.13126       48.25666       70.57094
H          1.22593       46.99482       71.17704
N          0.54875       49.78527       68.27973
C          0.08787       50.59335       67.14967
C         -0.41467       49.79712       65.94692
O         -0.77747       50.43261       64.96595
C          1.20187       51.55467       66.70658
H          0.06756       49.94342       69.17575
H         -0.75926       51.22361       67.50145
H          2.07457       51.00689       66.29541
H          0.82601       52.24211       65.91822
H          1.53541       52.17142       67.56702
N         -0.44560       48.43287       65.91510
C         -0.75917       47.67878       64.70888
C         -1.94493       46.75846       64.87389
O         -2.51881       46.64699       65.94787
C          0.50264       46.89561       64.23770
C          1.36858       46.22461       65.28942
O          2.55489       46.51156       65.31377
O          0.93294       45.31487       66.18829
H         -0.19030       47.88770       66.74758
H         -1.04952       48.35196       63.87270
H          1.15938       47.63667       63.73060
H          0.24891       46.14998       63.45875
N         -2.32821       46.03017       63.78835
C         -3.26640       44.93729       63.81018
C         -2.42165       43.69959       63.71861
O         -1.89087       43.29526       64.73845
H         -1.82966       46.16685       62.89606
H         -3.95953       45.04194       62.94726
H         -3.86810       44.90240       64.74490
N         -2.14822       43.10317       62.52726
C         -1.22354       41.98025       62.42429
C         -0.11212       42.28327       61.43136
O         -0.39528       42.52833       60.26661
C         -2.00298       40.72451       62.02650
C         -1.10880       39.51085       61.99294
N         -0.95260       38.80337       60.85206
O         -0.51976       39.16405       63.00676
H         -2.60031       43.45778       61.67045
H         -0.75996       41.76353       63.41268
H         -2.48934       40.88899       61.04130
H         -2.80058       40.54682       62.78067
H         -1.44077       39.08178       59.98880
H         -0.34038       37.97500       60.83203
N          1.19210       42.23273       61.82659
C          2.31298       42.40440       60.91814
C          2.38122       43.79775       60.34401
O          2.04076       44.73481       61.05248
H          1.41224       42.01542       62.81053
H          2.26180       41.63164       60.12532
H          3.25474       42.24745       61.48612
N          2.88490       44.06340       59.10382
C          3.39661       43.06986       58.15614
C          4.52204       42.22834       58.74815
O          4.45828       41.01248       58.62917
C          3.90165       43.75709       56.85622
C          2.72778       44.33615       56.03780
O          4.85309       44.74350       57.18591
H          2.92250       45.05773       58.82787
H          2.57879       42.37543       57.85769
H          4.38824       42.99204       56.20949
H          4.86998       45.42703       56.46980
H          3.10564       44.78373       55.09262
H          2.02170       43.52386       55.76126
H          2.17831       45.11600       56.60247
N          5.59272       42.79874       59.36989
C          6.75749       42.02694       59.81208
C          6.38288       40.94190       60.81910
O          5.79004       41.27536       61.83448
C          7.89946       42.93916       60.37575
C          7.57863       43.64724       61.72042
C          8.33173       43.94124       59.29933
C          8.78652       44.37062       62.32200
H          5.58814       43.82098       59.48678
H          7.17955       41.54717       58.90649
H          8.76683       42.27448       60.56380
H          7.30487       42.89695       62.48412
H          6.73272       44.35631       61.59984
H          7.55587       44.70686       59.09744
H          9.25621       44.46898       59.59833
H          8.53314       43.38545       58.36216
H          8.51184       44.78260       63.31574
H          9.62663       43.65534       62.46254
H          9.12211       45.21311       61.68686
N          6.65956       39.61327       60.64680
C          7.27215       38.99770       59.46716
C          8.71929       39.44159       59.21634
O          9.37558       39.95298       60.10963
C          7.21386       37.45569       59.63846
C          7.68409       36.67054       58.44794
O          7.10441       36.76688       57.37823
O          8.73211       35.83258       58.56555
H          6.34633       38.98491       61.40506
H          6.64825       39.28081       58.59151
H          6.16311       37.15198       59.84003
H          7.82580       37.17312       60.52441
N          9.25705       39.25020       57.97477
C         10.63064       39.55459       57.55272
C         10.73650       39.23184       56.06469
O         10.40760       38.10400       55.71864
C         11.66733       38.71867       58.36104
C         13.10996       38.93702       57.91761
C         13.58136       38.41931       56.69252
C         14.01054       39.64577       58.73571
C         14.90346       38.62347       56.28968
C         15.33514       39.84854       58.32657
C         15.77941       39.34068       57.10366
H          8.61986       38.86141       57.26464
H         10.85392       40.62287       57.73922
H         11.44003       37.63183       58.30647
H         11.57532       39.01498       59.42652
H         12.93754       37.84553       56.04348
H         13.68947       40.05080       59.68654
H         15.24887       38.22151       55.34523
H         16.01996       40.40051       58.95732
H         16.80339       39.49738       56.78801
N         11.21415       40.10347       55.11560
C         11.80443       41.42040       55.34471
C         10.87256       42.49486       55.86155
O          9.69705       42.23833       56.08393
C         12.28803       41.84217       53.94720
C         12.63087       40.51522       53.31642
C         11.43477       39.68030       53.74557
H         12.67059       41.28865       56.03110
H         11.42787       42.25076       53.36379
H         13.10158       42.59811       53.94447
H         12.79658       40.54665       52.21894
H         13.54485       40.12029       53.81588
H         10.53353       39.94189       53.14737
H         11.67188       38.59979       53.63576
N         11.36450       43.75545       56.04855
C         10.55726       44.88873       56.47910
C         11.47014       46.05322       56.87142
O         11.40893       47.10616       56.25266
C          9.54629       45.25972       55.35937
C          8.49157       46.29223       55.79630
C          7.60779       46.65782       54.63626
O          6.28636       46.41132       54.68112
O          8.08470       47.19097       53.64700
H         12.37066       43.90989       55.87740
H         10.00495       44.60927       57.38249
H          8.98424       44.35783       55.03830
H         10.11610       45.63013       54.47894
H          8.95984       47.22343       56.17186
H          7.87799       45.85861       56.61697
N         12.35953       45.96072       57.90344
C         12.53365       44.78098       58.72725
H         13.29986       44.97807       59.50658
H         11.58400       44.51693       59.23303
H         12.88820       43.92350       58.12204
H         12.94098       46.78367       58.12601
Ca        -1.06566       44.55299       66.90643
O          1.10194       42.16846       67.20783
H          1.11737       41.57653       68.00124
H          1.80843       42.83890       67.38610
O         -2.82733       41.85409       67.15449
H         -3.15263       41.25783       67.87442
H         -2.11770       41.33280       66.70134
O         -0.87616       42.57133       69.85165
H         -1.80391       42.52594       70.19395
H         -0.49269       41.68205       70.05790
O         -3.42560       44.63514       69.01594
H         -3.61481       45.14717       69.84205
H         -4.03914       43.85938       69.05771

Ca 1.0



