%chk=apoCaM-CA-Ng.loop1.water2.frame1115.chk
%nprocshared=20
%mem=10GB
%nosave
#b3lyp/svp scf=(tight,noincore,xqc) Test 
#IOP(5/87=12) Density=Current Pop=(MK,readradii) iop(6/33=2) iop(6/42=6)

apoCaM-CA-Ng.loop1.water2.frame1115 

   0  1 
C         65.73850       64.26190       88.70821
C         65.29797       62.89537       88.28451
O         65.97113       62.28919       87.46331
H         66.67302       64.55156       88.17982
H         64.94767       64.99949       88.45701
H         65.92505       64.27278       89.80115
N         64.15184       62.35409       88.79181
C         63.64166       61.05185       88.37363
C         62.35107       61.22160       87.59936
O         61.36725       60.54303       87.86258
C         63.55103       60.07286       89.56768
C         62.60409       60.46947       90.67607
O         62.48846       59.67105       91.75372
O         61.93570       61.48944       90.61636
H         63.60660       62.91102       89.46564
H         64.34071       60.59606       87.65055
H         64.56751       59.96730       90.00426
H         63.23858       59.07529       89.18915
N         62.31061       62.13459       86.59172
C         61.15917       62.32242       85.72279
C         60.97332       61.09795       84.82920
O         59.88641       60.53944       84.87079
C         61.24751       63.64266       84.91739
C         61.35799       64.85473       85.86629
C         61.34420       66.18693       85.10791
C         61.59236       67.39766       86.02925
N         60.56834       67.54498       87.06617
H         63.14145       62.72591       86.44601
H         60.25139       62.44605       86.35854
H         60.31637       63.74349       84.31691
H         62.10301       63.65158       84.21464
H         62.30468       64.79296       86.44266
H         60.50577       64.83046       86.57802
H         60.37259       66.30595       84.58076
H         62.15566       66.17571       84.34807
H         61.60139       68.31453       85.39960
H         62.59262       67.30474       86.50846
H         60.75452       68.42369       87.60169
H         59.61886       67.60753       86.63310
H         60.60519       66.74789       87.74050
N         61.95320       60.54986       84.03815
C         63.33268       61.02374       83.91346
C         64.28960       60.07985       84.62576
O         63.86521       59.04072       85.11368
C         63.69614       61.26630       82.43542
C         63.58110       60.03231       81.58224
O         64.34587       58.95274       81.83329
O         62.79989       60.01204       80.64506
H         61.71287       59.68363       83.53033
H         63.46030       61.98706       84.41988
H         64.73322       61.65610       82.35886
H         63.01253       62.04907       82.03730
N         65.59068       60.44375       84.82084
C         66.48764       59.68382       85.67720
C         66.91116       58.35806       85.11033
O         66.71167       58.09506       83.93267
H         65.91972       61.35022       84.45634
H         65.98415       59.51317       86.64915
H         67.41106       60.26686       85.88055
N         67.49679       57.45278       85.94536
C         67.98315       56.14617       85.52091
C         69.36643       55.87215       86.10745
O         69.72877       56.50762       87.08819
C         66.97151       55.06703       85.96702
C         65.70399       55.23048       85.17772
O         65.78762       55.16599       83.83516
O         64.63888       55.46285       85.72568
H         67.54732       57.68568       86.95000
H         68.06360       56.12803       84.41686
H         66.78462       55.14186       87.06143
H         67.35226       54.04873       85.76213
N         70.21339       54.92621       85.60053
C         69.98295       54.17130       84.37791
C         70.07344       55.04890       83.14843
O         70.36131       56.23359       83.26156
H         71.09891       54.74822       86.10023
H         69.01131       53.64619       84.41898
H         70.77420       53.39732       84.27593
N         69.86414       54.50726       81.91566
C         69.99969       55.28628       80.68416
C         68.99158       56.42749       80.61264
O         68.08477       56.49213       81.43072
C         69.90232       54.38936       79.41838
C         68.53345       53.70843       79.24567
O         70.94194       53.44098       79.40245
H         69.64585       53.50194       81.86887
H         71.01716       55.73806       80.69326
H         70.04937       55.03096       78.52350
H         70.72238       52.72013       80.04717
H         68.30878       53.02839       80.09151
H         67.72746       54.46874       79.16973
H         68.53276       53.10397       78.31590
N         69.13959       57.39196       79.65587
C         68.29565       58.57412       79.49859
C         66.89740       58.20655       79.02176
O         66.20186       57.45009       79.68458
C         68.26036       59.45991       80.78413
C         69.67661       59.77575       81.33834
C         67.47151       60.76196       80.53464
C         70.61110       60.50710       80.36868
H         69.94376       57.31526       79.01458
H         68.75796       59.19870       78.70343
H         67.72302       58.91685       81.58829
H         70.17120       58.82797       81.63920
H         69.57049       60.39287       82.25752
H         67.92913       61.36208       79.72089
H         66.42313       60.53962       80.24567
H         67.43783       61.37631       81.45945
H         70.80730       59.89337       79.46588
H         70.19338       61.48833       80.06629
H         71.58509       60.68952       80.86969
N         66.39845       58.79017       77.89320
C         65.02466       58.59475       77.43797
C         64.76543       57.21360       76.85492
O         63.60647       56.89935       76.61857
C         64.63660       59.66368       76.37556
C         65.42424       59.52832       75.05963
O         64.84469       60.95244       76.89316
H         66.98973       59.47963       77.40710
H         64.36216       58.74831       78.31826
H         63.55986       59.54380       76.10838
H         64.08110       61.14832       77.49619
H         65.09264       60.30864       74.34294
H         66.51538       59.64839       75.21773
H         65.24430       58.53917       74.58784
N         65.78421       56.39368       76.46705
C         65.53499       55.17926       75.69639
C         64.81626       54.13104       76.52300
O         65.36912       53.65587       77.50453
C         66.83193       54.59314       75.07840
C         67.48922       55.55969       74.07780
O         67.74760       54.18101       76.06287
H         66.75339       56.70307       76.61808
H         64.89333       55.45695       74.82944
H         66.54669       53.69142       74.49210
H         68.19064       54.98561       76.43667
H         66.77066       55.82252       73.27203
H         67.82113       56.49606       74.57244
H         68.37379       55.07541       73.61357
N         63.57199       53.70860       76.15088
C         62.82919       52.64050       76.80916
C         62.55107       52.99694       78.25395
O         62.98520       52.29311       79.15626
C         63.54356       51.27855       76.63828
C         63.78951       50.96882       75.15268
C         64.36306       49.56383       74.94970
C         64.65154       49.31201       73.46273
N         65.13845       47.95124       73.24371
H         63.12423       54.14767       75.33215
H         61.84156       52.53774       76.30507
H         62.89147       50.48927       77.07424
H         64.51482       51.26316       77.17805
H         64.49995       51.71795       74.73898
H         62.82983       51.04181       74.59494
H         63.62484       48.81736       75.31701
H         65.30576       49.45165       75.52853
H         65.41690       50.03928       73.10929
H         63.72339       49.46471       72.86789
H         65.34821       47.82369       72.22723
H         66.01160       47.78545       73.79468
H         64.40473       47.26108       73.52564
N         61.80535       54.10130       78.53340
C         61.50660       54.55084       79.88492
C         62.11284       55.95964       80.10824
O         63.50065       55.80754       80.11986
C         59.99680       54.43793       80.18824
C         59.52183       52.97750       80.14247
C         58.05462       52.88197       80.44897
O         57.58195       53.30340       81.63771
O         57.28416       52.41621       79.62456
H         61.43058       54.65453       77.74737
H         61.99585       53.89906       80.64438
H         59.38542       55.00141       79.46745
H         59.80927       54.84223       81.20770
H         60.08216       52.37312       80.88801
H         59.71272       52.55550       79.13131
N         61.80277       56.96490       79.07487
C         60.40527       57.38140       79.00588
H         59.94702       57.45345       80.01569
H         60.34166       58.37719       78.51625
H         59.84667       56.70323       78.33384
H         62.35087       57.81625       79.33516
Ca        64.23374       55.59359       82.26256
O         65.79796       53.52945       80.93730
H         65.15391       53.62916       80.19293
H         65.83996       52.55455       81.10068
O         61.80711       56.59023       84.12934
H         62.22644       55.73352       84.39495
H         62.55888       57.14205       83.79769

Ca 1.0



