%chk=apoCaM-CA-Ng.loop2.water4.frame485.chk
%nprocshared=20
%mem=10GB
%nosave
#b3lyp/svp scf=(tight,noincore,xqc) Test 
#IOP(5/87=12) Density=Current Pop=(MK,readradii) iop(6/33=2) iop(6/42=6)

apoCaM-CA-Ng.loop2.water4.frame485 

   -2  1 
C         71.37099       67.07686       79.79919
C         72.42336       67.85576       79.06472
O         72.96506       67.33741       78.09891
H         70.54082       66.82923       79.10479
H         71.81039       66.13469       80.18960
H         70.95745       67.65333       80.65246
N         72.76885       69.11167       79.46969
C         73.78486       69.91899       78.80674
C         74.90664       70.19113       79.78958
O         74.66320       70.81027       80.81691
C         73.14217       71.22229       78.29009
C         74.07651       72.11168       77.50846
O         75.24159       71.80066       77.31465
O         73.61053       73.26915       77.00306
H         72.29391       69.51613       80.29160
H         74.19374       69.37468       77.92728
H         72.73306       71.79934       79.14804
H         72.29659       70.95453       77.61997
N         76.15987       69.70984       79.54854
C         77.27179       69.84797       80.48117
C         77.62669       68.48346       81.04701
O         76.97259       67.50721       80.70179
C         78.45020       70.52888       79.78304
H         76.32693       69.16869       78.68588
H         76.98106       70.48295       81.34749
H         78.13419       71.52949       79.41616
H         79.29430       70.67883       80.48816
H         78.79985       69.92297       78.92155
N         78.59727       68.35406       81.99611
C         78.78507       67.12929       82.76623
C         80.18019       66.56206       82.62467
O         81.14452       67.25430       82.92472
C         78.53321       67.43034       84.25645
C         77.13691       67.92100       84.51182
O         76.73448       68.95558       84.00559
O         76.33580       67.22793       85.33589
H         79.15070       69.18178       82.26630
H         78.05411       66.34733       82.46255
H         79.25223       68.19574       84.62187
H         78.69313       66.49747       84.84255
N         80.35115       65.25454       82.27531
C         81.64971       64.60993       82.36368
C         81.56841       63.12028       82.11658
O         82.32193       62.61522       81.29677
H         79.52345       64.68714       82.03539
H         82.02676       64.73781       83.40172
H         82.37118       65.08932       81.66569
N         80.67682       62.35097       82.80931
C         80.60906       60.89771       82.70180
C         79.38083       60.48331       81.91615
O         78.26728       60.82407       82.29120
C         80.58473       60.24856       84.09947
C         81.85103       60.50819       84.87861
N         82.64060       59.48009       85.27030
O         82.16332       61.65343       85.16871
H         80.00880       62.81642       83.44327
H         81.50436       60.50581       82.17032
H         80.45522       59.15121       83.97113
H         79.71465       60.62465       84.68147
H         82.39560       58.50551       85.04144
H         83.50286       59.65710       85.80630
N         79.53591       59.72588       80.79344
C         78.45168       59.27750       79.93809
C         77.50639       58.29891       80.59938
O         77.61470       58.02321       81.78643
H         80.48974       59.46308       80.50112
H         78.90534       58.74627       79.07224
H         77.88612       60.14982       79.54763
N         76.56194       57.69170       79.82812
C         75.61970       56.69846       80.33140
C         74.64581       57.32022       81.31675
O         74.53394       56.80811       82.42210
C         74.89443       55.93753       79.17901
C         74.02603       56.78244       78.23313
O         75.82721       55.19222       78.43411
H         76.55418       57.92302       78.82444
H         76.19122       55.90259       80.86324
H         74.21215       55.19868       79.65503
H         76.38028       55.82394       77.90603
H         73.56859       56.12053       77.46771
H         73.19744       57.26519       78.77703
H         74.62194       57.55588       77.70803
N         73.92707       58.43673       80.99683
C         72.96047       59.05267       81.90304
C         73.47027       60.38697       82.41335
O         74.55225       60.81875       82.03795
C         71.53216       59.10373       81.26607
C         71.42127       59.81629       79.89152
C         70.98520       57.67162       81.13361
C         71.77199       61.30200       79.91098
H         74.09503       58.88941       80.08697
H         72.86824       58.44712       82.83217
H         70.84337       59.61902       81.96886
H         70.36340       59.74560       79.55428
H         72.04390       59.30585       79.12917
H         71.60195       57.06395       80.44216
H         70.97317       57.17144       82.12601
H         69.94054       57.68841       80.75567
H         71.14033       61.83850       80.65034
H         72.84183       61.46217       80.13964
H         71.58305       61.73278       78.90485
N         72.75457       61.04348       83.36756
C         73.22382       62.21332       84.09426
C         73.36249       61.82817       85.57765
O         73.40461       62.69610       86.43756
C         72.21484       63.35744       83.84650
C         72.66619       64.71609       84.32170
O         71.86139       65.77758       84.12870
O         73.75782       64.88113       84.84322
H         71.85061       60.64771       83.66904
H         74.21494       62.54888       83.71641
H         71.23885       63.09994       84.31242
H         72.06135       63.45450       82.74903
N         73.47802       60.51071       85.93398
C         73.56866       60.01560       87.30217
C         72.25736       60.27201       88.03213
O         71.21933       59.91279       87.49553
C         73.90391       58.50159       87.26387
C         74.06431       57.86710       88.62768
C         75.33796       57.48451       89.08530
C         72.94573       57.62706       89.44724
C         75.48803       56.88952       90.34185
C         73.09998       57.02879       90.69949
C         74.37009       56.66224       91.14813
H         73.52463       59.80011       85.19051
H         74.42649       60.51147       87.80236
H         74.86574       58.41364       86.70974
H         73.14345       57.93024       86.68801
H         76.21678       57.65226       88.47505
H         71.94990       57.88807       89.11776
H         76.47174       56.60275       90.68999
H         72.23215       56.84598       91.31971
H         74.48686       56.19804       92.11850
N         72.21438       60.83597       89.27906
C         70.99351       61.09207       90.03681
C         69.98379       61.95850       89.30577
O         68.79644       61.67194       89.35660
C         71.50333       61.84789       91.27326
C         72.85051       61.20750       91.49163
C         73.39077       61.15261       90.06776
H         70.54237       60.12018       90.34057
H         71.70669       62.91389       91.01813
H         70.81242       61.81924       92.14272
H         73.51596       61.71716       92.21974
H         72.66988       60.16394       91.84229
H         73.80143       62.12777       89.72570
H         74.17030       60.36149       90.04304
N         70.40572       63.05740       88.62122
C         69.52179       64.04058       87.98820
C         68.63076       63.46392       86.89380
O         67.75728       64.19018       86.43850
C         70.38400       65.15797       87.36089
C         71.18754       65.95353       88.40419
C         72.35677       66.61481       87.74200
O         73.48643       66.28705       88.07172
O         72.20625       67.50638       86.74611
H         71.42428       63.21061       88.58085
H         68.85908       64.46847       88.77333
H         69.77794       65.88017       86.76979
H         71.07753       64.64295       86.65909
H         71.60908       65.28104       89.17882
H         70.53376       66.68379       88.92575
N         68.78801       62.20217       86.40146
C         67.94370       61.64222       85.36489
H         67.14484       62.34175       85.03963
H         68.56639       61.38740       84.48226
H         67.46036       60.71857       85.74591
H         69.54492       61.60372       86.74923
Ca        74.17870       67.76705       85.69721
O         73.89025       70.92669       84.34193
H         74.42144       70.09318       84.36794
H         74.31865       71.46665       83.63166
O         71.48680       68.82339       83.58264
H         70.56352       68.49979       83.73440
H         71.47705       69.17424       82.65713
O         75.47066       68.99231       88.13076
H         74.79631       69.71677       88.10097
H         76.11892       69.22839       87.42036
O         74.08577       67.31151       82.21206
H         73.89870       68.27636       82.09605
H         75.00668       67.28158       82.57231

Ca 1.0



