%chk=apoCaM-CA-Ng.loop1.water4.frame158.chk
%nprocshared=20
%mem=10GB
%nosave
#b3lyp/svp scf=(tight,noincore,xqc) Test 
#IOP(5/87=12) Density=Current Pop=(MK,readradii) iop(6/33=2) iop(6/42=6)

apoCaM-CA-Ng.loop1.water4.frame158 

   0  1 
C         79.73032       55.37599       28.73166
C         79.02205       55.62154       27.42977
O         78.11650       54.86920       27.10105
H         80.52489       56.13106       28.91221
H         79.00012       55.43488       29.56648
H         80.19505       54.36882       28.72332
N         79.37103       56.68063       26.64736
C         78.69724       57.02456       25.39789
C         79.64658       57.06031       24.20079
O         79.18230       57.38569       23.11962
C         77.93107       58.35622       25.58523
C         78.76619       59.56692       25.92222
O         78.20893       60.62681       26.15266
O         80.10859       59.50925       25.98593
H         80.12765       57.29574       26.97918
H         77.92080       56.26623       25.15462
H         77.20359       58.20672       26.41341
H         77.34870       58.57962       24.66509
N         80.96170       56.69862       24.29215
C         81.89523       56.72643       23.16538
C         82.32693       55.31246       22.81593
O         82.76895       54.61915       23.72211
C         83.15361       57.53730       23.52772
C         82.87197       59.03204       23.70291
C         84.17182       59.77948       24.02459
C         83.93727       61.28938       24.14077
N         85.18537       61.98440       24.45577
H         81.32969       56.35955       25.19268
H         81.44494       57.21356       22.29183
H         83.88883       57.43447       22.69887
H         83.61616       57.12279       24.45118
H         82.14402       59.18667       24.52343
H         82.44107       59.43124       22.75779
H         84.91330       59.59543       23.21570
H         84.58661       59.39457       24.98228
H         83.19085       61.49258       24.94026
H         83.53623       61.67522       23.17682
H         85.00103       63.01166       24.51530
H         85.55819       61.65308       25.37526
H         85.89428       61.81095       23.70618
N         82.31012       54.78384       21.55002
C         81.89399       55.42050       20.29694
C         82.66157       56.71919       20.04507
O         82.02781       57.75928       19.92145
C         80.35600       55.63440       20.23269
C         79.56409       54.40972       20.59436
O         79.64436       53.94331       21.71942
O         78.71326       53.85124       19.71502
H         82.67231       53.82170       21.45129
H         82.13491       54.71782       19.46855
H         80.09877       55.95828       19.20086
H         80.02154       56.43417       20.91371
N         84.02170       56.79566       19.98847
C         84.93816       55.66162       20.01233
C         86.37111       56.11920       20.25559
O         86.55893       57.22937       20.73488
H         84.41839       57.74321       19.88729
H         84.82510       55.12029       19.05493
H         84.70682       54.96590       20.84112
N         87.45958       55.32458       20.04525
C         87.44534       54.00616       19.41440
C         87.06232       54.09022       17.93566
O         86.85103       55.18104       17.42099
C         88.84060       53.33197       19.55674
C         89.94793       54.01909       18.78675
O         90.53674       53.41683       17.90329
O         90.31835       55.28069       19.07737
H         88.36185       55.70338       20.36700
H         86.71482       53.36524       19.95484
H         88.77241       52.28155       19.20258
H         89.12074       53.28556       20.63079
N         87.00665       52.95742       17.17591
C         86.75664       52.96175       15.74461
C         85.32743       53.26429       15.34653
O         85.07906       53.28254       14.15021
H         87.22906       52.05034       17.60953
H         86.98704       51.95302       15.34021
H         87.44971       53.68314       15.25558
N         84.33851       53.51531       16.25682
C         82.97034       53.84377       15.85971
C         82.73219       55.32596       16.07495
O         83.54238       55.98915       16.70408
C         81.95326       52.93991       16.59915
C         82.09656       51.47691       16.17208
O         80.63630       53.34340       16.32263
H         84.55663       53.52619       17.26145
H         82.84409       53.69462       14.76485
H         82.14743       52.99269       17.69761
H         80.32437       53.87833       17.09954
H         81.89059       51.37511       15.08399
H         83.11748       51.09616       16.38254
H         81.36451       50.84974       16.72472
N         81.69864       55.93094       15.41947
C         81.53940       57.38075       15.35174
C         80.16055       57.84616       15.78749
O         79.92907       59.04912       15.71781
C         81.82191       57.86824       13.89459
C         80.77430       57.33211       12.87713
C         83.25874       57.49906       13.47715
C         80.87732       57.98825       11.50065
H         81.07090       55.34883       14.84854
H         82.27458       57.88516       16.01642
H         81.75283       58.97921       13.90558
H         79.75143       57.55724       13.24588
H         80.86309       56.23106       12.76279
H         83.51785       57.93504       12.49230
H         83.98641       57.89859       14.21485
H         83.38393       56.39647       13.41661
H         81.84559       57.76547       11.01143
H         80.06753       57.59871       10.84812
H         80.75285       59.08839       11.59469
N         79.18897       56.99208       16.22013
C         77.83267       57.43894       16.51344
C         77.59223       57.40132       18.00838
O         77.59769       56.33918       18.61210
C         76.78685       56.67344       15.66434
C         76.77467       55.15196       15.87128
O         77.03750       56.94110       14.30770
H         79.40874       55.99493       16.35013
H         77.71730       58.50072       16.20411
H         75.78555       57.07892       15.94469
H         76.17307       56.85403       13.82709
H         77.74111       54.69455       15.57592
H         76.55276       54.89007       16.92042
H         75.98136       54.70094       15.23830
N         77.43643       58.57532       18.67813
C         77.32327       58.68447       20.12393
C         75.87232       58.53740       20.54044
O         75.00643       59.11011       19.89198
C         77.87107       60.06323       20.59059
C         79.32931       60.30094       20.16054
O         77.77277       60.19242       21.98538
H         77.48435       59.45389       18.13837
H         77.95925       57.91774       20.62096
H         77.25523       60.86958       20.13491
H         78.44531       59.59715       22.40177
H         79.99355       59.52098       20.58947
H         79.43420       60.29077       19.05670
H         79.66449       61.29432       20.52736
N         75.55295       57.88738       21.69470
C         74.20116       57.84298       22.24913
C         73.79343       56.43264       22.64862
O         72.72777       56.29436       23.23618
C         74.16270       58.71899       23.52342
C         74.54028       60.18109       23.25276
C         74.62398       60.97438       24.56262
C         75.07721       62.43245       24.36722
N         76.41812       62.53281       23.78405
H         76.32086       57.49914       22.26489
H         73.45085       58.24559       21.53233
H         74.87502       58.29027       24.26289
H         73.14308       58.70197       23.96945
H         73.80621       60.64760       22.55981
H         75.52986       60.19383       22.77874
H         75.34112       60.47294       25.24937
H         73.62342       60.97640       25.04716
H         75.08743       62.91598       25.36896
H         74.35142       62.97929       23.72691
H         76.73350       63.52850       23.81742
H         77.09759       61.95032       24.32183
H         76.40722       62.23613       22.78345
N         74.58255       55.33917       22.42044
C         74.27460       54.05356       23.03149
C         74.51096       54.19221       24.52564
O         75.63307       54.48854       24.91474
C         75.14740       52.91784       22.44374
C         74.76306       51.56286       23.05760
C         75.45925       50.35627       22.48011
O         75.14720       49.25934       22.91455
O         76.39094       50.41002       21.50180
H         75.44282       55.42513       21.86246
H         73.21489       53.79292       22.80683
H         76.22510       53.12574       22.61848
H         74.95631       52.86917       21.35190
H         73.67180       51.41053       22.90570
H         74.96331       51.58250       24.15061
N         73.49744       54.01328       25.41657
C         73.66700       54.16818       26.84880
H         74.70408       54.45394       27.12745
H         72.98239       54.96098       27.21621
H         73.42113       53.21283       27.35621
H         72.55919       53.76301       25.07108
Ca        77.49633       52.11082       20.49010
O         79.37148       50.90538       22.47177
H         80.22831       51.19097       22.87685
H         78.99921       50.24523       23.10874
O         75.22395       50.79930       18.67058
H         74.85093       51.08712       17.79987
H         74.50285       50.98329       19.32375
O         77.74410       51.95128       17.19740
H         77.49879       51.77919       16.25373
H         78.68585       51.65435       17.26786
O         75.51276       53.98860       19.07925
H         74.69113       54.51233       18.90767
H         76.02167       54.53381       19.72952

Ca 1.0



