%chk=apoCaM-CA-Ng.loop2.water4.frame449.chk
%nprocshared=20
%mem=10GB
%nosave
#b3lyp/svp scf=(tight,noincore,xqc) Test 
#IOP(5/87=12) Density=Current Pop=(MK,readradii) iop(6/33=2) iop(6/42=6)

apoCaM-CA-Ng.loop2.water4.frame449 

   -2  1 
C         81.54974       97.31866       78.92419
C         82.08426       98.68650       79.23022
O         82.49648       98.93469       80.35464
H         80.48857       97.39808       78.60553
H         82.14123       96.85942       78.10499
H         81.60467       96.66382       79.81874
N         82.10520       99.63642       78.25673
C         82.58752      100.99304       78.48072
C         81.69057      101.71168       79.47127
O         80.49453      101.79919       79.22928
C         82.61388      101.77290       77.14929
C         83.18585      103.15408       77.32665
O         84.44426      103.31142       77.78099
O         82.51460      104.13732       77.05767
H         81.77091       99.37403       77.31571
H         83.63431      100.94346       78.85653
H         81.58438      101.83889       76.73104
H         83.24983      101.22986       76.41759
N         82.21346      102.30786       80.57911
C         81.39633      103.11602       81.47779
C         80.67300      102.26304       82.50389
O         80.95837      101.07964       82.62002
C         82.28564      104.13937       82.19790
H         83.23686      102.28523       80.71205
H         80.65941      103.69096       80.87411
H         81.68105      104.81685       82.83393
H         83.03922      103.62447       82.83337
H         82.81870      104.76567       81.45144
N         79.75356      102.83969       83.33010
C         79.12989      102.15865       84.46007
C         79.57399      102.79766       85.77035
O         79.13607      102.34120       86.81864
C         77.59658      102.19335       84.34090
C         77.11574      101.50085       83.10012
O         77.38772      100.19754       82.89964
O         76.45916      102.11343       82.27458
H         79.52068      103.83474       83.18656
H         79.44830      101.09274       84.50516
H         77.24617      103.24866       84.34689
H         77.14515      101.67148       85.21343
N         80.48849      103.81782       85.80267
C         81.02020      104.38922       87.02523
C         81.88073      103.42503       87.82388
O         82.37250      103.83813       88.86234
H         80.85253      104.22232       84.93221
H         80.18175      104.76359       87.65212
H         81.66355      105.25752       86.76176
N         82.08433      102.12860       87.43435
C         82.80171      101.15218       88.24110
C         83.76841      100.35050       87.36868
O         83.78822      100.53349       86.16014
C         81.72530      100.27219       88.91185
C         82.25703       99.27130       89.90001
N         82.01798       97.95010       89.73520
O         82.89671       99.65715       90.86735
H         81.64448      101.76815       86.58127
H         83.38473      101.66620       89.03587
H         81.13025       99.76358       88.12219
H         81.03578      100.94108       89.47344
H         81.47160       97.60840       88.93108
H         82.37692       97.26534       90.41608
N         84.62020       99.44911       87.93567
C         85.57458       98.65066       87.18536
C         85.38565       97.17102       87.43845
O         84.43666       96.76651       88.09398
H         84.63280       99.34103       88.95702
H         86.59067       98.93358       87.53283
H         85.52138       98.83776       86.09112
N         86.32023       96.30327       86.96417
C         86.28469       94.86301       87.20252
C         85.09423       94.20065       86.52194
O         84.37174       93.47996       87.19748
C         87.63648       94.17749       86.83759
C         88.12206       94.33994       85.38868
O         88.64630       94.60158       87.72137
H         87.11978       96.70833       86.45877
H         86.18308       94.68436       88.29832
H         87.50130       93.08758       87.01682
H         88.81645       95.56535       87.55861
H         87.38874       93.95498       84.66552
H         88.33555       95.39837       85.14137
H         89.06243       93.76392       85.25535
N         84.80857       94.41468       85.20484
C         83.69532       93.77000       84.50478
C         82.58292       94.78442       84.26604
O         82.76233       95.96763       84.52285
C         84.25040       93.06652       83.21584
C         85.24231       91.92125       83.56706
C         83.18777       92.54232       82.23201
C         84.62934       90.72582       84.30725
H         85.38338       95.08998       84.67809
H         83.21606       93.01318       85.15939
H         84.82047       93.83583       82.64798
H         86.06163       92.31159       84.19403
H         85.70054       91.54414       82.62678
H         82.57225       93.37662       81.83765
H         83.68222       92.08080       81.35065
H         82.52810       91.78388       82.69948
H         84.21009       91.02579       85.28811
H         83.84007       90.23646       83.70199
H         85.42192       89.97214       84.49788
N         81.35254       94.34211       83.88012
C         80.15848       95.16588       83.77207
C         79.09541       94.64955       84.76740
O         77.96063       95.10148       84.73006
C         79.69716       95.10805       82.29899
C         78.64819       96.12136       81.92055
O         78.24703       96.16103       80.76852
O         78.17773       97.01506       82.81176
H         81.22028       93.33572       83.70479
H         80.39102       96.22736       84.00926
H         79.34604       94.08302       82.05841
H         80.57539       95.32642       81.65301
N         79.42384       93.72207       85.72259
C         78.50647       93.16253       86.71218
C         77.46154       92.27353       86.05230
O         77.84559       91.40403       85.28213
C         79.32628       92.35365       87.75307
C         78.48280       91.66264       88.80122
C         78.37342       92.19167       90.09824
C         77.81681       90.46093       88.49520
C         77.59881       91.53767       91.06274
C         77.05188       89.80750       89.46273
C         76.93994       90.34653       90.74532
H         80.40071       93.40829       85.79297
H         78.03686       93.99569       87.27392
H         80.00780       93.08169       88.24764
H         79.97215       91.58987       87.26652
H         78.87760       93.11316       90.36075
H         77.89994       90.01800       87.51182
H         77.51085       91.95273       92.05805
H         76.54990       88.88044       89.21714
H         76.34613       89.83816       91.49354
N         76.12728       92.36712       86.36083
C         75.09096       91.48549       85.83375
C         75.06976       91.39804       84.32535
O         74.76925       90.33976       83.79182
C         73.79241       92.13861       86.32391
C         74.21333       92.68659       87.66388
C         75.57259       93.29252       87.33257
H         75.22103       90.47514       86.28383
H         73.54577       93.02022       85.68717
H         72.91570       91.45599       86.34139
H         73.49897       93.38672       88.14635
H         74.37214       91.81538       88.34198
H         75.48978       94.29653       86.86085
H         76.14902       93.34464       88.28035
N         75.37282       92.49193       83.57751
C         75.33992       92.51128       82.12152
C         76.29396       91.48074       81.55032
O         75.84906       90.61470       80.80901
C         75.68894       93.92093       81.60291
C         74.63372       94.95485       82.03786
C         74.99976       96.33569       81.59538
O         75.15739       97.30819       82.51370
O         75.13920       96.58979       80.40977
H         75.64575       93.35011       84.07836
H         74.30962       92.26962       81.77500
H         75.73137       93.90670       80.49126
H         76.68772       94.21224       81.98951
H         74.53029       94.97412       83.14201
H         73.64794       94.68402       81.60441
N         77.61816       91.49909       81.86169
C         78.54182       90.51996       81.33031
H         79.56410       90.71020       81.72002
H         78.22896       89.49786       81.63450
H         78.56478       90.58283       80.22125
H         77.98064       92.21937       82.50257
Ca        76.63717       99.20109       81.01662
O         73.78381       99.87624       80.30437
H         73.89379       98.99590       79.86503
H         73.97562      100.53378       79.58956
O         79.46844       99.24598       80.62460
H         79.15900      100.17747       80.74969
H         79.91702       99.01518       81.47592
O         77.33986       98.19947       78.16202
H         77.72752       97.50387       77.57376
H         76.53562       98.51563       77.67838
O         77.13487      101.54282       79.01458
H         77.74784      102.29040       79.22689
H         76.39863      101.63541       79.66939

Ca 1.0



