%chk=apoCaM-CA-Ng.loop2.water3.frame343.chk
%nprocshared=20
%mem=10GB
%nosave
#b3lyp/svp scf=(tight,noincore,xqc) Test 
#IOP(5/87=12) Density=Current Pop=(MK,readradii) iop(6/33=2) iop(6/42=6)

apoCaM-CA-Ng.loop2.water3.frame343 

   -2  1 
C         75.30972      106.35353       67.50682
C         76.00668      107.62965       67.87993
O         77.12424      107.55887       68.37154
H         74.31277      106.54790       67.05994
H         75.92767      105.79930       66.76907
H         75.17719      105.72198       68.41075
N         75.40127      108.83993       67.69705
C         76.03180      110.09805       68.07947
C         75.57311      110.44480       69.47992
O         74.40590      110.75825       69.66231
C         75.68432      111.19250       67.05030
C         76.34591      112.51928       67.31376
O         77.17942      112.69322       68.35826
O         76.12732      113.45514       66.56174
H         74.43244      108.86098       67.34212
H         77.13652      109.96419       68.07650
H         74.58137      111.34134       67.03689
H         75.99615      110.84567       66.04138
N         76.44112      110.32349       70.52806
C         76.03210      110.30204       71.93060
C         75.55425      108.88722       72.24932
O         76.22715      108.13881       72.94551
C         77.21848      110.72911       72.80717
H         77.39847      110.00115       70.31609
H         75.21251      111.02922       72.12369
H         76.92653      110.71916       73.87876
H         78.08631      110.04936       72.66428
H         77.53146      111.76096       72.53845
N         74.40788      108.44283       71.66860
C         73.96198      107.06156       71.64076
C         73.60063      106.51260       73.00517
O         72.75130      107.07225       73.68457
C         72.74148      106.95091       70.70438
C         72.28981      105.53337       70.54459
O         73.04943      104.69685       70.08333
O         71.04481      105.18192       70.91647
H         73.84872      109.11642       71.13694
H         74.77393      106.45152       71.18369
H         73.01107      107.34265       69.69881
H         71.90515      107.56519       71.10506
N         74.14884      105.33367       73.40352
C         73.74444      104.60192       74.58465
C         74.93933      104.35312       75.44861
O         75.36599      105.26156       76.14719
H         74.84644      104.87688       72.79527
H         73.33475      103.63043       74.23629
H         72.94152      105.10120       75.16901
N         75.57799      103.15079       75.38997
C         76.76715      102.83957       76.16807
C         77.96793      102.80756       75.23446
O         77.78919      102.71525       74.02608
C         76.51173      101.49988       76.89808
C         77.52024      101.12929       77.95741
N         77.13010      100.98680       79.24758
O         78.68454      100.92276       77.65450
H         75.23548      102.43774       74.72580
H         76.93680      103.64555       76.91551
H         76.44471      100.67725       76.15179
H         75.51707      101.57870       77.38885
H         76.14805      101.13402       79.52548
H         77.80834      100.71938       79.97555
N         79.22953      102.97038       75.71876
C         80.40674      103.00007       74.86400
C         80.66736      101.66916       74.19304
O         79.90036      100.73233       74.37302
H         79.36410      103.12585       76.72905
H         81.29235      103.23906       75.49215
H         80.29972      103.80062       74.09995
N         81.78791      101.50506       73.43272
C         82.15692      100.20509       72.87411
C         81.38530       99.86298       71.60277
O         81.46363       98.71599       71.18247
C         83.68923      100.07272       72.67239
C         84.26328      100.97322       71.56873
O         84.36630      100.27940       73.88923
H         82.43806      102.30065       73.35595
H         81.90163       99.43738       73.64029
H         83.89815       99.02525       72.36306
H         84.34094      101.24897       74.10040
H         85.35519      100.79285       71.47769
H         83.79483      100.72893       70.59485
H         84.10109      102.04763       71.78981
N         80.62352      100.78411       70.93927
C         79.79946      100.46492       69.77495
C         78.36388      100.71353       70.16152
O         78.02957      101.83601       70.52157
C         80.18519      101.31805       68.53080
C         81.65210      101.10343       68.08009
C         79.21657      101.06253       67.35351
C         82.00622       99.66935       67.66692
H         80.58678      101.75357       71.28945
H         79.90269       99.39416       69.49897
H         80.08632      102.39382       68.79963
H         82.33273      101.41215       68.89853
H         81.85426      101.77150       67.21406
H         79.49519      101.68965       66.48046
H         79.21576       99.99564       67.04951
H         78.17569      101.33498       67.62859
H         81.37430       99.32115       66.82488
H         83.06386       99.63618       67.33211
H         81.90120       98.96857       68.51839
N         77.46223       99.69537       70.14202
C         76.08850       99.87164       70.58647
C         75.45377       98.51017       70.82334
O         74.36488       98.24110       70.34562
C         75.31452      100.73087       69.55372
C         73.94075      101.14443       69.99591
O         73.51182      100.85471       71.10184
O         73.17811      101.87073       69.16186
H         77.78917       98.75459       69.86774
H         76.12145      100.37944       71.57636
H         75.24013      100.16214       68.60107
H         75.86758      101.66708       69.33825
N         76.13302       97.58423       71.55449
C         75.64833       96.23600       71.83638
C         75.30446       95.50933       70.53274
O         76.17283       95.43401       69.67337
C         76.74584       95.43613       72.58612
C         77.23650       96.13234       73.84027
C         78.56712       96.58995       73.91361
C         76.38260       96.34138       74.93656
C         79.02941       97.24918       75.05576
C         76.85292       96.99638       76.08191
C         78.17352       97.45160       76.13999
H         77.06338       97.85515       71.90573
H         74.76053       96.31307       72.49509
H         77.60465       95.30279       71.89092
H         76.37127       94.42322       72.84970
H         79.24645       96.44782       73.08203
H         75.35724       95.99626       74.90643
H         80.05168       97.60404       75.09854
H         76.19375       97.15336       76.92570
H         78.53451       97.96087       77.02451
N         74.08042       94.93296       70.30099
C         73.76500       94.17185       69.09751
C         73.24322       95.03837       67.95234
O         73.03153       94.50430       66.87272
C         72.65384       93.23599       69.58668
C         71.88013       94.15036       70.52452
C         73.01120       94.84808       71.27830
H         74.63615       93.57430       68.74823
H         72.05331       92.75259       68.78590
H         73.11337       92.43742       70.21227
H         71.35183       94.90522       69.89886
H         71.12932       93.65748       71.17694
H         72.66909       95.83911       71.64718
H         73.36799       94.22039       72.12452
N         72.93235       96.35204       68.13194
C         72.32821       97.18273       67.09664
C         73.29217       97.40803       65.95236
O         72.95732       97.06207       64.82770
C         71.85524       98.53243       67.68235
C         70.72421       98.32162       68.70724
C         70.22540       99.61940       69.26020
O         69.73559      100.45599       68.51817
O         70.28709       99.85324       70.58557
H         73.06168       96.75814       69.06234
H         71.41944       96.67236       66.70248
H         71.46083       99.16347       66.85490
H         72.70723       99.06919       68.15426
H         71.07665       97.69294       69.55104
H         69.87158       97.80302       68.21842
N         74.50598       97.98845       66.16528
C         75.45649       98.25728       65.10410
H         76.39546       97.69885       65.29768
H         75.07272       97.96211       64.10422
H         75.68061       99.34425       65.08010
H         74.77592       98.25266       67.12401
Ca        71.16205      102.54247       69.89051
O         70.06716      103.72723       67.46134
H         69.38331      104.39727       67.71338
H         70.81820      104.26033       67.09797
O         68.37579      103.08685       70.55090
H         68.01675      102.43376       69.89894
H         67.78052      103.87348       70.47146
O         71.24215      102.25869       72.94509
H         70.88254      102.84670       73.65582
H         71.88212      101.66481       73.41221

Ca 1.0



