%chk=apoCaM-CA-Ng.loop4.water3.frame343.chk
%nprocshared=20
%mem=10GB
%nosave
#b3lyp/svp scf=(tight,noincore,xqc) Test 
#IOP(5/87=12) Density=Current Pop=(MK,readradii) iop(6/33=2) iop(6/42=6)

apoCaM-CA-Ng.loop4.water3.frame343 

   -3  1 
C         71.39421       83.21598       43.51542
C         71.01048       82.12834       42.51883
O         72.18999       81.51814       42.08493
H         72.07971       83.94411       43.03320
H         70.49083       83.75264       43.87056
H         71.91355       82.76053       44.38748
N         70.09224       81.16764       43.15571
C         69.64523       79.99307       42.37330
C         70.77711       79.02145       42.07646
O         71.37529       79.09229       41.01947
C         68.57298       80.24823       41.26466
C         68.88253       81.15716       40.09722
O         69.83201       80.84993       39.19766
O         68.20781       82.15981       39.92226
H         69.24228       81.68609       43.47951
H         69.02750       79.41511       43.09726
H         67.68618       80.68267       41.77854
H         68.25713       79.26517       40.85183
N         71.14219       78.11945       43.04309
C         72.21001       77.11554       42.99849
C         71.85832       75.94221       42.08519
O         71.70905       74.84345       42.60371
C         73.61805       77.72057       42.73603
C         74.75687       76.67375       42.90532
C         73.88649       78.93766       43.64021
C         74.92650       76.10920       44.32575
H         70.63010       78.16256       43.93795
H         72.24652       76.69347       44.02640
H         73.65336       78.07744       41.68934
H         75.71552       77.15668       42.62497
H         74.59493       75.82630       42.20590
H         73.15036       79.73733       43.44995
H         73.81411       78.67667       44.71468
H         74.89461       79.35156       43.43502
H         74.02766       75.55502       44.66053
H         75.78235       75.40296       44.34336
H         75.14829       76.91258       45.05648
N         71.67161       76.08053       40.74016
C         71.23076       74.97834       39.89800
C         72.34120       73.94325       39.70568
O         72.10266       72.80373       40.07997
C         70.60120       75.50247       38.58581
C         69.99126       74.39483       37.77244
O         70.36476       74.19400       36.62821
O         69.00987       73.63395       38.29544
H         71.77735       76.99748       40.30120
H         70.37366       74.48779       40.41714
H         71.31914       76.06793       37.97227
H         69.78438       76.21066       38.84721
N         73.57499       74.19901       39.16408
C         74.03372       75.50426       38.69724
C         75.45264       75.49297       38.13034
O         76.06440       74.43454       38.10370
H         74.21772       73.39521       39.10137
H         73.99538       76.21283       39.54459
H         73.37868       75.81122       37.88116
N         76.08798       76.60785       37.63889
C         75.58700       77.98269       37.58386
C         75.33081       78.49892       38.99395
O         74.17794       78.71589       39.33713
C         74.39335       78.13133       36.60606
C         74.11427       79.57702       36.27434
O         74.21266       79.96754       35.12184
O         73.75167       80.44706       37.23560
H         77.04490       76.47127       37.27588
H         76.37401       78.61691       37.11964
H         73.46470       77.69062       36.99845
H         74.65395       77.60889       35.65869
N         76.33354       78.72079       39.89902
C         77.76090       78.65590       39.61152
C         78.49390       77.64334       40.45614
O         77.88462       76.92587       41.23594
H         76.06796       79.02495       40.84770
H         78.19439       79.66027       39.80725
H         77.96857       78.40794       38.55552
N         79.84408       77.52042       40.30704
C         80.64392       76.51483       41.00345
C         80.69837       76.71481       42.50994
O         81.12025       75.78511       43.18495
C         82.10773       76.52905       40.48757
C         82.27470       76.12969       39.00864
C         81.99991       74.66887       38.72794
N         82.15409       74.18794       37.47354
O         81.66200       73.90840       39.62355
H         80.30654       78.14203       39.62555
H         80.18145       75.52397       40.81026
H         82.74595       75.84654       41.09154
H         82.50620       77.56001       40.62549
H         83.33279       76.31982       38.72611
H         81.63333       76.76288       38.36084
H         82.44944       74.80803       36.70538
H         81.98483       73.19143       37.27114
N         80.39729       77.90599       43.10311
C         80.57877       78.14216       44.53699
C         81.75332       79.07562       44.80946
O         82.05778       79.29292       45.97395
C         79.26891       78.64234       45.20165
C         78.18619       77.55923       45.13696
C         78.74592       79.95542       44.59412
H         80.10757       78.69711       42.51073
H         80.86216       77.19701       45.05128
H         79.48046       78.82523       46.27910
H         77.27834       77.89999       45.67684
H         77.91693       77.32622       44.08562
H         78.54731       76.62960       45.62784
H         79.51677       80.75160       44.65966
H         78.45108       79.82382       43.53228
H         77.84875       80.29758       45.15241
N         82.49066       79.62048       43.79859
C         83.69157       80.41643       44.01216
C         83.49363       81.82550       43.49704
O         83.77790       82.75818       44.23644
C         84.88824       79.74949       43.30351
C         85.13468       78.34695       43.80913
N         85.44151       78.11610       45.10812
O         85.06056       77.40736       43.03136
H         82.22974       79.43434       42.82206
H         83.94690       80.48761       45.09289
H         85.80733       80.35263       43.47415
H         84.69920       79.71640       42.20755
H         85.51816       78.89100       45.78234
H         85.60688       77.15510       45.44314
N         83.00295       82.06228       42.24523
C         82.88552       83.40239       41.67660
C         81.43828       83.78591       41.46192
O         80.59536       82.91058       41.51949
C         83.54978       83.40289       40.28204
C         84.93218       82.80944       40.28664
C         85.16624       81.58940       39.62603
C         85.98974       83.45145       40.94327
C         86.43902       81.02039       39.62475
C         87.26779       82.88307       40.93379
C         87.49671       81.66737       40.27694
O         88.73305       81.13100       40.27792
H         82.71228       81.26555       41.65878
H         83.35827       84.14845       42.35132
H         83.56890       84.42298       39.84210
H         82.91034       82.77683       39.61625
H         84.36172       81.07055       39.11765
H         85.82424       84.39168       41.45375
H         86.59964       80.07789       39.11591
H         88.08094       83.38864       41.43729
H         88.92826       80.29353       39.83324
N         81.13127       85.07411       41.11070
C         79.87725       85.61524       40.56918
C         78.62088       85.59806       41.45373
O         78.05617       86.66714       41.64652
C         79.63868       85.16564       39.10584
C         79.30343       83.69328       38.84482
C         79.14718       83.45323       37.36794
O         79.96334       82.58731       36.73616
O         78.28916       84.04488       36.73184
H         81.91382       85.74683       41.13402
H         80.07719       86.70350       40.42029
H         80.56155       85.41143       38.53164
H         78.81400       85.78872       38.69254
H         78.36269       83.41532       39.35974
H         80.12503       83.04395       39.19547
N         78.07623       84.45954       41.96843
C         76.78453       84.40610       42.65364
C         76.70060       85.24785       43.92521
O         75.60477       85.34673       44.46179
C         76.40674       82.94123       43.01552
C         76.46829       81.90983       41.86812
C         75.58432       82.24491       40.70531
O         75.78960       83.24248       40.03404
O         74.59065       81.40964       40.36208
H         78.54641       83.58069       41.80251
H         76.02519       84.80874       41.94958
H         75.37569       82.93025       43.43461
H         77.09916       82.58272       43.80950
H         76.15846       80.93283       42.28878
H         77.50091       81.76749       41.49378
N         77.78220       85.87351       44.47492
C         77.70118       86.68792       45.67294
H         78.03450       87.72056       45.43866
H         76.67124       86.74418       46.08538
H         78.36489       86.26236       46.45355
H         78.71252       85.77648       44.04774
Ca        71.80854       81.54035       39.87980
O         71.36587       82.20684       36.57217
H         71.60211       81.68962       35.76159
H         70.38399       82.10927       36.65161
O         71.15212       78.88758       37.56074
H         70.36917       78.87774       36.95567
H         70.81638       78.50365       38.40854
O         73.20118       84.04594       38.73485
H         72.55598       84.40724       38.07708
H         73.73180       83.38480       38.22298

Ca 1.0



