%chk=apoCaM-CA-Ng.loop1.water1.frame901.chk
%nprocshared=20
%mem=10GB
%nosave
#b3lyp/svp scf=(tight,noincore,xqc) Test 
#IOP(5/87=12) Density=Current Pop=(MK,readradii) iop(6/33=2) iop(6/42=6)

apoCaM-CA-Ng.loop1.water1.frame901 

   0  1 
C        103.15118       41.23382       34.80747
C        101.90856       41.77204       35.45218
O        101.87921       41.92834       36.66448
H        103.93524       41.02712       35.56600
H        102.91177       40.28952       34.27371
H        103.54113       41.97369       34.07741
N        100.82933       42.07564       34.67977
C         99.57193       42.59181       35.22014
C         99.00155       41.65687       36.28761
O         98.65631       40.52460       35.99771
C         98.55366       42.98376       34.09723
C         98.69029       42.29256       32.74118
O         98.45490       40.97999       32.52820
O         99.06395       42.96219       31.79044
H        100.93371       41.92940       33.66661
H         99.80172       43.54530       35.74717
H         98.77714       44.05344       33.87700
H         97.51090       42.97877       34.48238
N         98.95704       42.07988       37.58761
C         98.52986       41.25815       38.71767
C         97.02901       41.02981       38.69659
O         96.28193       41.99108       38.57689
C         98.96803       41.93885       40.03671
C         98.75758       41.04670       41.27327
C         99.42322       41.66798       42.51086
C         99.28699       40.75947       43.74061
N         99.99042       41.32881       44.89080
H         99.31706       43.02357       37.79982
H         99.08036       40.29167       38.68311
H         98.45475       42.91668       40.17356
H        100.06105       42.13094       39.95077
H         99.23306       40.05839       41.08793
H         97.67162       40.89144       41.45431
H         98.96976       42.65973       42.72731
H        100.50638       41.81056       42.29945
H         99.71991       39.75928       43.51417
H         98.21093       40.62850       43.99010
H        101.01087       41.42030       44.67778
H         99.59570       42.26733       45.12923
H         99.87648       40.69288       45.71296
N         96.51819       39.77849       38.88231
C         95.07774       39.50693       38.91288
C         94.73119       38.20095       39.61427
O         95.62287       37.41983       39.91053
C         94.47958       39.56671       37.48600
C         95.37353       38.97401       36.44907
O         95.69780       37.79666       36.45226
O         95.84374       39.82673       35.53096
H         97.18277       39.01175       39.06180
H         94.60766       40.27147       39.56956
H         94.35858       40.64010       37.22618
H         93.48516       39.08962       37.39079
N         93.44991       37.92079       40.01441
C         92.29358       38.78075       39.79404
C         91.79529       39.40113       41.06619
O         92.32661       39.14057       42.13662
H         93.28048       37.05894       40.54974
H         91.48847       38.19630       39.29830
H         92.51775       39.64767       39.15855
N         90.78570       40.31026       40.99490
C         90.26765       41.01255       42.15820
C         89.60961       40.01157       43.08106
O         88.72344       39.29054       42.64074
C         89.27869       42.10866       41.71243
C         88.81586       43.00233       42.83531
O         88.05497       43.92386       42.59013
O         89.24603       42.82382       44.10007
H         90.39631       40.53098       40.06389
H         91.11606       41.52635       42.66442
H         88.39825       41.64477       41.21720
H         89.79368       42.75872       40.97059
N         90.00889       39.89764       44.37691
C         89.48715       38.87262       45.25744
C         89.99789       37.53516       44.79787
O         89.21108       36.66126       44.46146
H         90.72116       40.54351       44.74943
H         88.37591       38.91749       45.28306
H         89.86481       39.03854       46.28933
N         91.34329       37.32122       44.76723
C         91.94962       36.06655       44.33934
C         91.69064       35.77950       42.86946
O         91.11018       36.59493       42.16825
C         93.47964       36.06019       44.62963
C         94.26543       37.09572       43.81254
O         93.70667       36.29602       45.99444
H         91.95217       38.08200       45.10303
H         91.49394       35.24790       44.94017
H         93.90898       35.06790       44.36085
H         93.46207       35.46144       46.47354
H         93.93706       38.13022       44.03674
H         95.34626       37.01893       44.05329
H         94.14895       36.90862       42.72672
N         92.09678       34.59199       42.35110
C         91.90238       34.19816       40.96374
C         90.66441       33.32915       40.91730
O         89.77904       33.58417       40.11185
C         93.16120       33.44864       40.42040
C         94.46296       34.24098       40.71325
C         93.00380       33.20063       38.90492
C         95.74756       33.50331       40.33231
H         92.51282       33.90220       42.99386
H         91.73425       35.09544       40.32496
H         93.24135       32.47195       40.94704
H         94.53657       34.43827       41.80339
H         94.44146       35.20664       40.18063
H         93.84981       32.61285       38.49737
H         92.07917       32.62828       38.68725
H         92.95479       34.17020       38.36073
H         95.80114       32.52596       40.85694
H         95.81921       33.34416       39.23833
H         96.62277       34.11557       40.63845
N         90.50713       32.33291       41.83401
C         89.33235       31.48644       41.93413
C         89.77311       30.04143       41.87578
O         90.87397       29.72017       42.30746
C         88.56458       31.78088       43.24366
C         88.06404       33.23342       43.27177
O         87.46094       30.91657       43.33957
H         91.24401       32.18307       42.53848
H         88.63319       31.68084       41.08918
H         89.25186       31.60836       44.10497
H         87.14603       30.95298       44.28069
H         87.37822       33.42145       42.41713
H         87.51048       33.42746       44.21474
H         88.91153       33.94824       43.21718
N         88.94779       29.11173       41.33737
C         89.31533       27.71682       41.15467
C         89.22982       27.39538       39.67667
O         90.22057       26.96773       39.10233
C         88.42505       26.81118       42.03564
C         88.83508       25.34086       41.93269
O         87.06717       26.93456       41.69464
H         88.01534       29.42165       41.02440
H         90.36415       27.53880       41.48687
H         88.58676       27.11141       43.09991
H         86.63538       27.50046       42.38649
H         89.90000       25.21744       42.22588
H         88.20985       24.72939       42.61652
H         88.69986       24.96498       40.89646
N         88.07307       27.62761       38.99288
C         87.91323       27.40452       37.56497
C         87.65921       28.72018       36.84893
O         87.43895       29.74173       37.48459
C         86.79362       26.37012       37.29676
C         85.46567       26.69241       38.01196
C         84.37119       25.68125       37.64692
C         83.06052       25.90438       38.42580
N         83.19691       25.59426       39.85275
H         87.27318       28.02734       39.49856
H         88.85670       27.00311       37.13461
H         87.13760       25.37857       37.66430
H         86.63041       26.28687       36.20048
H         85.11851       27.71399       37.74366
H         85.64282       26.64322       39.10307
H         84.72314       24.64295       37.83094
H         84.15932       25.79036       36.56115
H         82.28964       25.22704       37.99713
H         82.70682       26.95098       38.29384
H         83.52121       24.60709       39.97566
H         83.86070       26.24686       40.32485
H         82.26358       25.69511       40.31310
N         87.76546       28.75918       35.49114
C         87.63574       29.97068       34.69021
C         88.57799       31.08072       35.16525
O         88.07707       32.17325       35.39246
C         87.82313       29.62534       33.19178
C         87.68264       30.84072       32.26456
C         87.74821       30.41617       30.82410
O         86.80793       30.63498       30.07695
O         88.84315       29.79156       30.34892
H         87.99298       27.87822       35.00459
H         86.59327       30.35066       34.79113
H         87.04053       28.88187       32.92019
H         88.80728       29.15096       33.01252
H         88.50356       31.56369       32.46003
H         86.71080       31.34520       32.45661
N         89.92093       30.93691       35.36930
C         90.65942       29.69942       35.24569
H         91.72625       29.87964       35.49765
H         90.27808       28.94909       35.96630
H         90.61665       29.30760       34.21489
H         90.45324       31.76618       35.67752
Ca        97.28257       39.64652       33.86442
O         98.25324       36.13119       35.04948
H         98.95154       35.85781       34.40274
H         98.07785       35.31635       35.58423

Ca 1.0



