%chk=apoCaM-CA-Ng.loop1.water2.frame1301.chk
%nprocshared=20
%mem=10GB
%nosave
#b3lyp/svp scf=(tight,noincore,xqc) Test 
#IOP(5/87=12) Density=Current Pop=(MK,readradii) iop(6/33=2) iop(6/42=6)

apoCaM-CA-Ng.loop1.water2.frame1301 

   0  1 
C         57.17141       22.20007       63.20085
C         56.66491       21.50838       64.43115
O         55.91895       22.11324       65.18846
H         58.28106       22.23151       63.21452
H         56.83083       21.64705       62.30065
H         56.78485       23.24066       63.14662
N         57.04299       20.22521       64.69529
C         56.58601       19.48052       65.86570
C         57.75000       19.20934       66.79992
O         58.01606       18.07351       67.16809
C         55.79950       18.22028       65.43541
C         56.55780       17.20099       64.61688
O         57.73729       17.34661       64.33758
O         55.91303       16.10018       64.18720
H         57.69560       19.77111       64.03985
H         55.87712       20.09964       66.45823
H         54.92715       18.55611       64.83437
H         55.41176       17.71388       66.34553
N         58.47891       20.26808       67.24067
C         59.57720       20.16907       68.19372
C         59.08653       19.67564       69.54228
O         59.63397       18.68897       70.01466
C         60.33165       21.51744       68.35356
C         60.83006       22.11156       67.02081
C         61.82435       21.21163       66.26822
C         62.07533       21.69360       64.83141
N         62.60997       23.05241       64.76857
H         58.22243       21.19403       66.87251
H         60.31528       19.43261       67.81555
H         61.19677       21.37134       69.03814
H         59.67357       22.27691       68.81624
H         61.31552       23.08724       67.23728
H         59.96262       22.32144       66.36596
H         61.41601       20.18965       66.15167
H         62.77317       21.14466       66.84412
H         61.11887       21.64821       64.26225
H         62.79098       20.99187       64.34921
H         63.49830       23.11713       65.31496
H         62.80215       23.28721       63.76819
H         61.91019       23.73932       65.12978
N         58.07010       20.25035       70.25082
C         57.22155       21.36563       69.82628
C         55.79729       20.87065       69.64348
O         55.54272       19.68701       69.81634
C         57.37676       22.55097       70.79563
C         57.22266       22.15885       72.22616
O         56.15799       21.74739       72.65741
O         58.29979       22.22940       73.02879
H         57.83793       19.81841       71.15987
H         57.50537       21.76600       68.84586
H         56.68731       23.38369       70.54299
H         58.41001       22.94252       70.67665
N         54.82300       21.71554       69.21047
C         53.49100       21.25873       68.85773
C         52.76670       20.56521       70.02056
O         52.65831       21.45050       71.08101
H         55.04596       22.71006       69.06226
H         53.57614       20.54408       68.01076
H         52.88690       22.12799       68.51284
N         51.44240       20.13999       69.57276
C         50.49048       19.52303       70.52824
C         49.11238       19.68676       69.85984
O         49.00572       19.34829       68.68823
C         50.68783       17.98040       70.72433
C         51.67368       17.30942       71.68198
O         51.64475       16.08999       71.72020
O         52.48771       17.92289       72.56741
H         51.54129       19.53321       68.72486
H         50.49645       20.02724       71.51555
H         50.81554       17.52345       69.72026
H         49.71785       17.60790       71.12626
N         47.98335       20.11278       70.50106
C         47.89676       20.38861       71.91829
C         48.51852       21.69865       72.31947
O         48.89874       22.49834       71.47556
H         47.09963       20.12252       69.96701
H         48.35623       19.54230       72.47230
H         46.82823       20.44025       72.22295
N         48.66195       21.95287       73.64802
C         49.25402       23.16290       74.21216
C         50.60834       23.43312       73.58682
O         51.37912       22.50134       73.42657
C         49.40402       23.01513       75.75053
C         48.04953       22.92305       76.46348
O         50.09350       24.12239       76.27591
H         48.36974       21.20282       74.29238
H         48.59478       24.03558       74.00863
H         49.96318       22.07433       75.97172
H         51.03136       23.83660       76.43859
H         48.21256       22.80829       77.55615
H         47.46151       23.84894       76.28855
H         47.45269       22.05446       76.11987
N         50.95581       24.71379       73.24676
C         52.21396       25.13635       72.63146
C         53.41520       24.65406       73.43888
O         53.72560       23.47085       73.40537
C         52.29101       24.69164       71.14047
C         51.11306       25.19522       70.26899
C         53.64639       25.02719       70.48808
C         51.08231       26.70427       70.02886
H         50.28540       25.46606       73.46589
H         52.22602       26.24731       72.63768
H         52.19080       23.61023       71.13396
H         50.15154       24.88402       70.72965
H         51.17493       24.69709       69.27522
H         54.47760       24.52051       71.02090
H         53.66273       24.66728       69.43748
H         53.84292       26.11793       70.50223
H         51.99662       27.03839       69.49653
H         50.21174       26.94934       69.38473
H         50.98065       27.25848       70.98240
N         54.16244       25.53162       74.16511
C         55.38082       25.14107       74.86974
C         55.25791       25.24781       76.38899
O         56.22113       24.91989       77.06520
C         56.58310       25.96019       74.32970
C         56.48416       27.46094       74.63095
O         56.68693       25.79400       72.93874
H         53.86061       26.51620       74.20530
H         55.61021       24.07743       74.66237
H         57.51975       25.59991       74.81682
H         57.09742       24.90506       72.78368
H         55.59988       27.91743       74.14172
H         56.42655       27.63920       75.72499
H         57.38771       27.97678       74.24256
N         54.12199       25.69946       77.00122
C         54.01975       25.85339       78.45395
C         54.07696       24.50603       79.16666
O         53.19706       23.68084       78.96606
C         52.72441       26.60442       78.84749
C         52.72647       28.04485       78.31856
O         51.60089       25.91751       78.35700
H         53.32314       25.98315       76.41970
H         54.87169       26.48273       78.79630
H         52.68866       26.65112       79.96202
H         50.83080       26.17353       78.92797
H         51.80137       28.56538       78.64313
H         53.59940       28.59843       78.72613
H         52.77277       28.07392       77.21019
N         55.11126       24.22547       80.01604
C         55.28459       22.97578       80.75614
C         55.23726       21.79614       79.79530
O         54.39555       20.91659       79.93124
C         54.24817       22.83771       81.89549
C         54.68863       21.72885       82.87977
C         53.63586       21.36091       83.93152
C         52.44825       20.60611       83.30858
N         51.52845       20.12994       84.33952
H         55.85686       24.93009       80.12261
H         56.28984       23.01898       81.23422
H         53.25177       22.64356       81.44925
H         54.18229       23.78588       82.47316
H         55.60366       22.09022       83.39990
H         54.96563       20.79436       82.34899
H         53.29503       22.26548       84.48032
H         54.12525       20.67637       84.65883
H         52.83207       19.72677       82.74296
H         51.89729       21.26047       82.60110
H         52.02720       19.48319       84.99354
H         51.13349       20.93842       84.87138
H         50.74791       19.60527       83.88225
N         56.09071       21.76352       78.74334
C         55.94417       20.82051       77.64499
C         56.20355       21.55017       76.33896
O         55.24803       21.70725       75.59165
C         56.75166       19.52898       77.88996
C         56.66334       18.53238       76.71997
C         55.24949       18.10366       76.43949
O         54.53128       17.47472       77.38908
O         54.74598       18.32346       75.34963
H         56.73033       22.56248       78.64337
H         54.87498       20.50745       77.59476
H         56.37044       19.04225       78.81473
H         57.81427       19.76137       78.08217
H         57.26238       17.63017       76.96628
H         57.10562       18.99535       75.81050
N         57.40352       22.08632       75.97298
C         58.66531       21.93332       76.66571
H         59.45098       22.50372       76.12650
H         58.62638       22.32065       77.69859
H         58.98159       20.87302       76.65243
H         57.42132       22.64656       75.11548
Ca        53.13165       20.01833       72.65414
O         55.82951       18.20714       72.48351
H         55.38044       17.86234       71.67169
H         56.01021       17.39812       73.02423
O         52.14040       20.09416       75.54445
H         51.29191       20.12837       75.03461
H         52.13251       20.91223       76.10201

Ca 1.0



