%chk=apoCaM-CA-Ng.loop3.water6.frame425.chk
%nprocshared=20
%mem=10GB
%nosave
#b3lyp/svp scf=(tight,noincore,xqc) Test 
#IOP(5/87=12) Density=Current Pop=(MK,readradii) iop(6/33=2) iop(6/42=6)

apoCaM-CA-Ng.loop3.water6.frame425 

   0  1 
C         75.89883       46.64320       63.38044
C         74.48578       46.19376       63.60499
O         74.04603       46.15021       64.74492
H         76.47384       45.82589       62.89622
H         75.90982       47.53648       62.72152
H         76.38871       46.90119       64.34357
N         73.71285       45.83857       62.54200
C         72.33878       45.36083       62.66042
C         71.39653       46.34658       61.97191
O         71.86612       47.35204       61.45456
C         72.29778       43.92591       62.08502
C         71.00308       43.20272       62.32051
O         70.35962       42.77000       61.37819
O         70.55260       43.01585       63.57662
H         74.12235       45.90001       61.59577
H         72.03805       45.31324       63.72961
H         73.08299       43.32717       62.59612
H         72.53676       43.95178       60.99907
N         70.04778       46.13911       61.94817
C         69.09799       47.08753       61.38351
C         68.00583       47.36322       62.39827
O         67.30466       46.43975       62.78897
C         68.53404       46.57610       60.03509
C         67.78696       45.23195       60.09155
C         67.32879       44.79786       58.69229
C         66.62616       43.42839       58.69033
N         65.36520       43.43957       59.43594
H         69.66042       45.28464       62.36406
H         69.60774       48.04529       61.13758
H         69.39174       46.47135       59.33434
H         67.85017       47.35042       59.62068
H         66.89708       45.33198       60.73797
H         68.45875       44.45130       60.50304
H         68.22469       44.71892       58.03833
H         66.64859       45.56368       58.25880
H         67.30646       42.65498       59.11113
H         66.41025       43.15490       57.63400
H         65.52985       43.61432       60.45207
H         64.72255       44.16693       59.04622
H         64.90920       42.50352       59.34143
N         67.79891       48.61812       62.88277
C         66.68811       48.91593       63.77855
C         65.38096       48.66157       63.03634
O         65.30432       48.94639       61.84845
C         66.80142       50.35764       64.31909
C         65.74863       50.66103       65.35284
O         66.08031       50.89399       66.63387
O         64.57504       50.70221       65.04175
H         68.42754       49.38118       62.58744
H         66.75611       48.24896       64.66849
H         66.75070       51.09902       63.49435
H         67.79475       50.45727       64.80882
N         64.31306       48.11696       63.68249
C         63.05194       47.77875       63.03767
C         62.46656       48.92681       62.24475
O         62.15736       48.73218       61.07753
H         64.39244       47.93221       64.69397
H         62.32815       47.46830       63.82183
H         63.20442       46.91047       62.35878
N         62.32910       50.16300       62.79815
C         61.79461       51.31300       62.07489
C         62.89169       52.25868       61.59657
O         62.56728       53.17585       60.85496
C         60.82690       52.08295       62.99516
C         59.66612       51.24246       63.45485
N         58.73922       50.80797       62.57205
O         59.54852       50.96939       64.63999
H         62.65279       50.30397       63.76120
H         61.26636       50.96978       61.15828
H         60.42435       52.98120       62.48208
H         61.40610       52.42717       63.88219
H         58.81068       51.05063       61.57354
H         57.93658       50.24645       62.89225
N         64.19623       52.11868       61.97097
C         65.26781       52.99580       61.52241
C         65.86358       53.81654       62.65142
O         66.85531       54.48792       62.40927
H         64.46114       51.36651       62.61664
H         64.92537       53.70739       60.74021
H         66.05969       52.35932       61.07245
N         65.28785       53.86793       63.88904
C         65.80598       54.69437       64.97730
C         64.78074       54.78011       66.09309
O         64.24809       53.76526       66.51734
C         67.15009       54.17098       65.52789
C         67.66105       55.06618       66.64157
C         67.98201       56.41271       66.39001
C         67.79902       54.56730       67.94736
C         68.42242       57.24243       67.42607
C         68.23794       55.39862       68.98289
C         68.54887       56.74120       68.72525
O         68.96410       57.55752       69.71506
H         64.40943       53.35365       64.04509
H         65.96666       55.72173       64.58425
H         67.91591       54.12992       64.72604
H         67.00292       53.14003       65.90367
H         67.88490       56.82464       65.39400
H         67.55662       53.53771       68.16613
H         68.65834       58.27895       67.21995
H         68.33036       54.99998       69.98545
H         69.05643       57.25344       70.62933
N         64.47489       55.99344       66.62479
C         63.41908       56.19458       67.60734
C         62.07746       55.93658       66.93820
O         61.21227       55.34461       67.56933
C         63.54870       57.61240       68.24369
C         64.89831       57.76825       69.01356
C         62.37036       57.96352       69.16812
C         65.09648       56.81452       70.20483
H         64.99785       56.81684       66.29012
H         63.52414       55.45948       68.43146
H         63.54051       58.36539       67.42379
H         64.97604       58.80935       69.39405
H         65.74683       57.61621       68.31718
H         62.26839       57.23711       69.99862
H         62.51506       58.98217       69.58973
H         61.41950       57.97718       68.60109
H         64.30481       56.95027       70.96900
H         65.12047       55.75295       69.88577
H         66.07184       57.02695       70.69025
N         61.87780       56.24160       65.61983
C         60.66378       55.85976       64.90385
C         59.45327       56.68271       65.31391
O         58.35419       56.33170       64.90889
C         60.87511       55.97311       63.38960
O         61.97430       55.18935       63.01528
H         62.64773       56.67655       65.08869
H         60.46357       54.78666       65.12791
H         61.06143       57.03957       63.12859
H         59.96824       55.60708       62.85823
H         62.18682       55.44098       62.08036
N         59.57055       57.77783       66.12265
C         58.44527       58.54884       66.63478
C         57.52964       57.63854       67.43036
O         56.32362       57.63423       67.22018
C         57.72425       59.30470       65.50778
H         60.50244       58.07280       66.44225
H         58.85431       59.30999       67.33633
H         58.44442       59.95978       64.97322
H         57.27097       58.60605       64.77438
H         56.91838       59.94241       65.92933
N         58.08039       56.77690       68.32895
C         57.32271       55.80296       69.09256
C         57.70263       55.90942       70.54694
O         58.87862       55.78188       70.86201
C         57.63750       54.39583       68.58145
H         59.10672       56.76715       68.43373
H         56.22790       55.95439       68.96417
H         57.05818       53.64510       69.16178
H         57.34560       54.31200       67.51277
H         58.72056       54.16724       68.67420
N         56.75064       56.12483       71.49521
C         57.02448       56.19251       72.92493
C         57.94898       57.36190       73.22320
O         58.97153       57.18786       73.87384
C         57.58985       54.84293       73.44411
C         56.67835       53.65412       73.10029
C         57.30205       52.35674       73.52896
O         58.37044       52.00259       73.05434
O         56.67592       51.56580       74.42009
H         55.76890       56.23289       71.19719
H         56.06010       56.38692       73.44512
H         57.72343       54.89448       74.54715
H         58.58906       54.66182       72.99535
H         56.51259       53.59866       72.00288
H         55.69487       53.78738       73.59969
N         57.65050       58.59959       72.74241
C         58.50380       59.74313       72.97998
H         59.52815       59.54105       72.59895
H         58.10000       60.63282       72.45187
H         58.54827       59.96078       74.06778
H         56.80369       58.73155       72.16862
Ca        64.34580       51.28631       68.03217
O         61.28140       52.05322       67.21618
H         60.47567       51.49293       67.34867
H         61.14117       52.48717       66.33808
O         63.49732       53.05040       70.27000
H         63.84277       52.89274       71.18433
H         62.70198       53.62590       70.39708
O         62.44869       49.15356       66.48461
H         62.50736       48.16674       66.43391
H         61.66960       49.38533       65.91988
O         61.87944       50.28359       69.66790
H         62.02298       49.46747       70.20942
H         61.28205       50.84858       70.21963
O         64.74931       48.36629       68.65661
H         64.91602       48.09937       67.71779
H         65.61629       48.72912       68.96809
O         66.64247       51.67391       69.68086
H         67.10711       50.85618       69.37154
H         66.66177       51.61947       70.66814

Ca 1.0



