%chk=apoCaM-CA-Ng.loop4.water5.frame925.chk
%nprocshared=20
%mem=10GB
%nosave
#b3lyp/svp scf=(tight,noincore,xqc) Test 
#IOP(5/87=12) Density=Current Pop=(MK,readradii) iop(6/33=2) iop(6/42=6)

apoCaM-CA-Ng.loop4.water5.frame925 

   -3  1 
C         -9.92083       -9.09551       10.17666
C        -10.85836      -10.15917        9.69074
O        -11.92455       -9.81413        9.20819
H         -8.96699       -9.16804        9.61290
H        -10.35351       -8.08551       10.00869
H         -9.71818       -9.22007       11.25780
N        -10.51334      -11.47819        9.80416
C        -11.25617      -12.62767        9.28040
C        -11.02701      -12.78323        7.78245
O        -10.48954      -13.80479        7.37814
C        -12.75680      -12.63323        9.64853
C        -12.98274      -12.59416       11.13261
O        -13.63467      -11.69014       11.63020
O        -12.49231      -13.57210       11.91844
H         -9.62959      -11.69404       10.29037
H        -10.81604      -13.54066        9.74536
H        -13.21470      -13.56960        9.26423
H        -13.28712      -11.78856        9.16532
N        -11.39200      -11.81104        6.90060
C        -11.18665      -11.86268        5.45670
C        -11.98010      -13.02420        4.86368
O        -11.38903      -13.92422        4.28511
C         -9.66244      -11.84775        5.09872
C         -8.96875      -10.66729        5.83679
C         -9.46730      -11.71579        3.56998
C         -7.46636      -10.55318        5.57684
H        -11.84100      -10.96437        7.25482
H        -11.60428      -10.92897        5.01566
H         -9.19136      -12.79684        5.43480
H         -9.09007      -10.80255        6.93300
H         -9.45198       -9.70682        5.55315
H         -9.94946      -12.53768        3.00892
H         -9.89127      -10.75591        3.20581
H         -8.39469      -11.76454        3.29841
H         -6.95206      -11.49720        5.85354
H         -7.25716      -10.30893        4.51604
H         -7.05265       -9.72623        6.19168
N        -13.33896      -13.10506        4.95936
C        -14.20037      -12.15105        5.65321
C        -14.87276      -12.87417        6.81477
O        -14.66250      -14.07336        6.95188
C        -15.16537      -11.53885        4.62140
C        -15.97328      -10.39505        5.15566
O        -17.18957      -10.43212        5.09866
O        -15.36011       -9.30745        5.66425
H        -13.80112      -13.91923        4.52182
H        -13.62305      -11.31518        6.07053
H        -15.83047      -12.32878        4.20969
H        -14.55800      -11.12632        3.78634
N        -15.66946      -12.22490        7.71264
C        -16.29811      -12.91828        8.82636
C        -17.78209      -12.93405        8.62269
O        -18.32941      -13.99815        8.36913
H        -15.84795      -11.21658        7.60956
H        -16.02838      -12.43815        9.79218
H        -15.95112      -13.97198        8.89054
N        -18.50711      -11.78937        8.73755
C        -19.94728      -11.74308        8.51763
C        -20.36234      -10.65287        7.53285
O        -21.54858      -10.57533        7.24371
C        -20.67862      -11.67352        9.87753
C        -20.20583      -10.59364       10.81375
O        -19.65092      -10.93209       11.99340
O        -20.34268       -9.41704       10.53836
H        -18.02321      -10.93225        9.04821
H        -20.29522      -12.69093        8.05009
H        -20.49420      -12.64335       10.38966
H        -21.77522      -11.58882        9.71764
N        -19.47018       -9.79699        6.94363
C        -19.87510       -8.78458        5.97230
C        -20.72852       -7.67828        6.56696
O        -21.16448       -6.81207        5.82372
H        -18.46677       -9.86812        7.15616
H        -20.41811       -9.28191        5.14046
H        -18.96859       -8.29985        5.54648
N        -20.96337       -7.61794        7.90638
C        -21.69329       -6.57273        8.60244
C        -21.00344       -5.23538        8.44401
O        -21.66788       -4.21632        8.30844
C        -23.19852       -6.57631        8.25576
C        -23.85049       -7.90225        8.68536
C        -25.33714       -7.90561        8.44075
N        -25.91087       -8.85893        7.66982
O        -26.03657       -7.05128        8.96495
H        -20.54582       -8.32599        8.50891
H        -21.61161       -6.79307        9.69117
H        -23.35133       -6.40215        7.16864
H        -23.69391       -5.75229        8.81454
H        -23.68532       -8.05005        9.77459
H        -23.37264       -8.74723        8.14574
H        -25.34421       -9.59984        7.23213
H        -26.93093       -8.86530        7.52090
N        -19.64065       -5.17694        8.49057
C        -18.88536       -3.93224        8.50212
C        -17.90167       -3.86906        9.67228
O        -17.33422       -2.80317        9.86384
C        -18.14749       -3.70959        7.15005
C        -17.12013       -4.81120        6.83706
C        -19.15100       -3.59083        5.99401
H        -19.11963       -6.06441        8.49972
H        -19.58533       -3.07796        8.63938
H        -17.60213       -2.74116        7.20903
H        -16.59542       -4.58024        5.88528
H        -16.35463       -4.87193        7.63663
H        -17.60998       -5.80173        6.72985
H        -18.61963       -3.36368        5.04533
H        -19.71848       -4.53482        5.86066
H        -19.86871       -2.76645        6.19228
N        -17.58946       -4.95804       10.45160
C        -16.54408       -4.91070       11.47241
C        -16.96430       -5.70953       12.71006
O        -17.87456       -6.52105       12.61618
C        -15.25750       -5.48367       10.82879
C        -13.96702       -5.02271       11.46374
N        -13.06048       -4.32910       10.73031
O        -13.72316       -5.28059       12.62981
H        -17.98649       -5.87937       10.23678
H        -16.37051       -3.84881       11.75190
H        -15.22512       -5.13013        9.77607
H        -15.31224       -6.59367       10.78703
H        -13.23333       -4.10839        9.73757
H        -12.17342       -4.01477       11.14935
N        -16.35607       -5.51895       13.91524
C        -16.68941       -6.30745       15.10378
C        -16.04253       -5.70820       16.32919
O        -14.85779       -5.41497       16.28645
C        -16.20230       -7.77374       14.97252
C        -16.61091       -8.59373       16.18454
C        -17.97254       -8.79948       16.46882
C        -15.64524       -9.14405       17.04780
C        -18.36180       -9.53162       17.59381
C        -16.03797       -9.87481       18.17631
C        -17.39534      -10.07027       18.45360
O        -17.75909      -10.77489       19.54481
H        -15.66161       -4.76259       13.99226
H        -17.79171       -6.29597       15.24499
H        -15.09463       -7.77150       14.86318
H        -16.62673       -8.25520       14.06802
H        -18.73575       -8.39007       15.82009
H        -14.58944       -9.00137       16.85696
H        -19.41551       -9.67685       17.79693
H        -15.28721      -10.28803       18.83869
H        -18.68756      -10.93200       19.77061
N        -16.75259       -5.57242       17.48536
C        -16.16564       -5.04713       18.70516
C        -16.13183       -6.14116       19.76021
O        -17.17365       -6.38963       20.35262
C        -16.98863       -3.83805       19.20571
C        -17.02491       -2.69456       18.18344
C        -17.83062       -1.53748       18.70130
O        -19.01616       -1.67711       18.95903
O        -17.24988       -0.33497       18.87319
H        -17.73458       -5.88753       17.51456
H        -15.14635       -4.68485       18.51546
H        -16.54657       -3.46198       20.15476
H        -18.03420       -4.16404       19.41229
H        -17.48107       -3.04266       17.23137
H        -15.98611       -2.35893       17.97799
N        -15.02385       -6.88281       20.07653
C        -13.71395       -6.88220       19.41215
C        -13.02443       -5.53349       19.48036
O        -12.85143       -4.99779       20.56609
C        -12.81697       -7.95018       20.09117
C        -11.38217       -8.09719       19.55126
C        -11.28350       -8.69178       18.17482
O        -10.71518       -9.76160       18.02158
O        -11.74241       -8.03871       17.09428
H        -15.15596       -7.56925       20.83783
H        -13.85744       -7.17786       18.35217
H        -13.31523       -8.94388       20.04207
H        -12.72683       -7.67264       21.16471
H        -10.84946       -8.78127       20.24789
H        -10.84891       -7.12382       19.57393
N        -12.57717       -4.94644       18.33271
C        -11.90498       -3.66650       18.28418
H        -10.89486       -3.80258       17.84340
H        -12.48537       -2.97521       17.63715
H        -11.79745       -3.20723       19.28786
H        -12.70431       -5.43433       17.43522
Ca       -11.20578       -8.95984       15.10395
O        -10.48201       -6.03655       14.66529
H        -11.37082       -5.89645       15.07888
H         -9.91807       -6.38514       15.40112
O        -13.25350      -11.11492       15.17446
H        -13.88954      -11.27425       14.43303
H        -12.84147      -11.99874       15.34476
O        -10.41052      -11.04424       12.93800
H        -11.38070      -10.86270       12.86965
H        -10.31695      -12.00057       12.70109
O        -13.09419       -8.50393       13.03863
H        -13.80641       -8.49824       12.35275
H        -12.85232       -7.55263       13.16243
O         -9.70724      -11.99178       15.57929
H        -10.29460      -12.70231       15.21751
H         -9.71958      -12.13432       16.55833

Ca 1.0



