%chk=apoCaM-CA-Ng.loop4.water3.frame150.chk
%nprocshared=20
%mem=10GB
%nosave
#b3lyp/svp scf=(tight,noincore,xqc) Test 
#IOP(5/87=12) Density=Current Pop=(MK,readradii) iop(6/33=2) iop(6/42=6)

apoCaM-CA-Ng.loop4.water3.frame150 

   -3  1 
C         46.09890       44.34818       82.47408
C         45.48339       43.65820       83.65394
O         45.60459       42.44639       83.73766
H         47.19239       44.15266       82.46229
H         45.65198       43.94951       81.53884
H         45.93239       45.44419       82.51095
N         44.82753       44.36807       84.62078
C         44.21832       43.76974       85.80458
C         45.25138       43.02233       86.62751
O         45.26250       41.80481       86.64080
C         42.87352       43.05170       85.51003
C         42.85688       41.99964       84.43920
O         43.53608       40.85445       84.58961
O         42.17513       42.16197       83.43908
H         44.78492       45.39446       84.53512
H         43.87876       44.59104       86.47604
H         42.15936       43.84369       85.19207
H         42.47806       42.61521       86.45361
N         46.15858       43.76008       87.33751
C         47.22463       43.30545       88.23477
C         46.67583       42.69284       89.52878
O         46.87803       43.29394       90.57531
C         48.30160       42.42969       87.53696
C         49.57977       42.27486       88.41725
C         48.68041       42.97409       86.14660
C         50.37994       43.56898       88.65591
H         46.08948       44.78528       87.23619
H         47.73839       44.24171       88.53612
H         47.86805       41.42309       87.37801
H         50.26983       41.56212       87.91978
H         49.30352       41.84292       89.40258
H         47.80433       42.95724       85.46833
H         49.05016       44.01793       86.20223
H         49.46378       42.33758       85.68673
H         50.75078       43.99210       87.69925
H         49.79355       44.34124       89.18941
H         51.26447       43.34619       89.28686
N         45.94812       41.53648       89.54894
C         45.31466       41.02240       90.75772
C         46.32447       40.40090       91.72440
O         46.37949       40.88476       92.84629
C         44.12125       40.09182       90.42367
C         43.03036       40.84507       89.70338
O         42.44369       41.90800       90.28682
O         42.65702       40.48915       88.59840
H         45.77064       41.03142       88.67820
H         44.83642       41.87772       91.29003
H         43.68474       39.70340       91.36884
H         44.42056       39.23077       89.80223
N         47.15792       39.35209       91.43707
C         47.24779       38.68982       90.14256
C         48.24475       37.52995       90.10879
O         48.88094       37.27283       91.12093
H         47.76764       39.03101       92.20424
H         47.55545       39.44598       89.39642
H         46.26808       38.27803       89.91038
N         48.48308       36.76292       88.99333
C         47.84612       36.87095       87.67953
C         48.03395       38.27202       87.12880
O         47.04764       38.97190       86.94733
C         46.37163       36.38228       87.72999
C         45.71413       36.25706       86.37714
O         44.44905       35.80210       86.30224
O         46.30581       36.54875       85.34955
H         49.20840       36.03299       89.07748
H         48.34712       36.15560       86.99060
H         45.73333       37.04033       88.33833
H         46.35974       35.37125       88.19113
N         49.26537       38.80365       86.88094
C         50.53510       38.09176       86.93101
C         51.40493       38.57442       88.06203
O         50.91143       39.25685       88.94911
H         49.31042       39.79257       86.60085
H         51.05046       38.27030       85.96509
H         50.42013       36.99637       87.03772
N         52.73158       38.24700       88.09098
C         53.61086       38.61243       89.20026
C         54.56016       39.75285       88.85995
O         55.23172       40.22172       89.76978
C         54.38101       37.37087       89.71031
C         55.48628       36.89019       88.73993
C         56.26099       35.70202       89.25757
N         57.31760       35.23414       88.55396
O         55.95220       35.16283       90.31055
H         53.12531       37.73205       87.28939
H         52.98549       38.98194       90.04198
H         53.65550       36.55041       89.90698
H         54.87070       37.63408       90.67356
H         56.21446       37.71645       88.59461
H         55.05788       36.62240       87.75211
H         57.60004       35.68398       87.67139
H         57.86317       34.42944       88.89626
N         54.67874       40.25269       87.59434
C         55.55006       41.37871       87.25486
C         56.68382       40.99329       86.32292
O         57.51467       41.85186       86.06122
C         54.73262       42.54452       86.63191
C         53.78854       43.15536       87.66723
C         53.94475       42.11926       85.37596
H         54.13444       39.81915       86.83659
H         56.05558       41.76283       88.16886
H         55.44350       43.34724       86.33344
H         53.05186       42.40213       88.01390
H         54.37080       43.52158       88.54010
H         53.25147       44.02130       87.22574
H         53.44861       43.00170       84.92115
H         54.62187       41.67484       84.61609
H         53.15016       41.38329       85.62081
N         56.80293       39.74680       85.78652
C         57.90761       39.37779       84.91513
C         57.39635       39.04869       83.52607
O         57.88517       39.64559       82.57589
C         58.69804       38.20978       85.54187
C         59.29790       38.60093       86.87612
N         60.19336       39.61399       86.96844
O         58.97474       37.99217       87.88466
H         56.10374       39.02300       86.00137
H         58.62632       40.21634       84.79095
H         59.52779       37.91039       84.86501
H         58.02862       37.33228       85.67685
H         60.49235       40.13848       86.13398
H         60.59499       39.87656       87.88112
N         56.45010       38.08929       83.32073
C         56.07125       37.62004       81.98460
C         54.57005       37.62950       81.73136
O         53.80417       37.78300       82.66771
C         56.67535       36.20903       81.80208
C         56.37225       35.31600       82.99122
C         57.40030       35.01681       83.90455
C         55.07652       34.83340       83.24143
C         57.13564       34.26680       85.05094
C         54.81562       34.07460       84.38811
C         55.84046       33.79518       85.29927
O         55.56943       33.08066       86.40996
H         56.05965       37.60383       84.14305
H         56.50958       38.28183       81.20576
H         57.77574       36.36573       81.75607
H         56.38016       35.73322       80.84344
H         58.40458       35.39121       83.74747
H         54.26621       35.04903       82.55915
H         57.93713       34.06442       85.75014
H         53.81247       33.71310       84.57485
H         56.24871       32.87988       87.06988
N         54.11802       37.42629       80.44960
C         52.73851       37.33128       79.95065
C         51.95465       38.64690       79.94490
O         51.51647       39.05528       78.87737
C         51.95349       36.18709       80.62512
C         50.65988       35.86943       79.84424
C         49.91167       34.71385       80.44078
O         50.43642       33.61432       80.51962
O         48.64237       34.87732       80.85997
H         54.84377       37.27960       79.73075
H         52.83046       37.03256       78.87933
H         51.71798       36.44099       81.68078
H         52.58907       35.27473       80.61214
H         50.91611       35.60527       78.79380
H         49.99557       36.75993       79.82579
N         51.69488       39.33752       81.08911
C         50.84165       40.52341       81.16938
C         51.36341       41.69648       80.34079
O         50.64566       42.68189       80.22912
C         50.72066       41.01360       82.64073
C         50.28211       39.96243       83.67789
C         48.86550       39.49897       83.55632
O         47.85844       40.34588       83.82891
O         48.62182       38.32058       83.35002
H         52.08228       38.97363       81.95030
H         49.83490       40.23804       80.79000
H         50.03416       41.88746       82.70153
H         51.73184       41.35628       82.95485
H         50.39445       40.41193       84.68270
H         50.94988       39.08267       83.67387
N         52.59872       41.69535       79.76039
C         53.08745       42.82444       78.99892
H         54.11370       42.61557       78.62825
H         52.42521       43.01227       78.12742
H         53.12146       43.72926       79.64265
H         53.23220       40.89217       79.86912
Ca        45.86005       39.41598       84.29533
O         43.46658       38.65759       86.43568
H         44.05601       39.41176       86.68581
H         43.30012       38.18254       87.28727
O         45.44212       39.35399       81.45045
H         45.19722       38.96785       80.57353
H         46.27589       38.88286       81.70233
O         43.25711       37.90579       83.28972
H         43.97503       37.25725       83.50063
H         42.58927       37.77958       84.00950

Ca 1.0



