%chk=apoCaM-CA-Ng.loop1.water3.frame1220.chk
%nprocshared=20
%mem=10GB
%nosave
#b3lyp/svp scf=(tight,noincore,xqc) Test 
#IOP(5/87=12) Density=Current Pop=(MK,readradii) iop(6/33=2) iop(6/42=6)

apoCaM-CA-Ng.loop1.water3.frame1220 

   0  1 
C         36.89512        0.49544      124.47525
C         35.85750       -0.50917      124.88884
O         35.29233       -1.18078      124.03680
H         37.76427       -0.04664      124.05082
H         36.49178        1.21876      123.73899
H         37.25656        1.07119      125.35494
N         35.61546       -0.68724      126.21744
C         34.78499       -1.73421      126.80512
C         33.29593       -1.34996      126.87714
O         32.62954       -1.67823      127.85046
C         35.38126       -2.14973      128.18264
C         35.42373       -1.03760      129.21536
O         36.18048       -0.08645      129.09243
O         34.66581       -1.12147      130.32217
H         36.22394       -0.14983      126.83537
H         34.86851       -2.63572      126.16409
H         36.42224       -2.51711      128.03397
H         34.79237       -2.99755      128.59005
N         32.70723       -0.68752      125.83882
C         31.30022       -0.29467      125.75398
C         30.41138       -1.52297      125.78442
O         29.51036       -1.55990      126.61140
C         30.97760        0.51179      124.45415
C         31.90051        1.70190      124.12267
C         31.79427        2.89361      125.08133
C         32.90830        3.94033      124.84117
N         32.87734        4.55111      123.50701
H         33.30359       -0.44238      125.05501
H         31.05868        0.35806      126.62254
H         29.91840        0.84303      124.48459
H         31.04377       -0.13875      123.57134
H         31.62505        2.04348      123.10404
H         32.95202        1.36176      124.06670
H         31.91742        2.53030      126.12255
H         30.78826        3.35628      124.98507
H         33.89431        3.44900      124.99835
H         32.81357        4.74525      125.60303
H         32.03590        5.16268      123.40647
H         33.73261        5.14295      123.38923
H         32.88955        3.83280      122.75010
N         30.58993       -2.59935      124.95866
C         31.61831       -2.73678      123.91492
C         32.76367       -3.61559      124.33214
O         32.86775       -3.97668      125.48968
C         30.97852       -3.15812      122.58025
C         30.06999       -4.33722      122.68477
O         30.53098       -5.56658      123.02984
O         28.89753       -4.16490      122.41270
H         29.95478       -3.40119      125.10839
H         32.16153       -1.81498      123.70884
H         31.73628       -3.39269      121.81494
H         30.40468       -2.29072      122.18272
N         33.76526       -3.86304      123.44687
C         34.91321       -4.68672      123.74315
C         34.63402       -6.16726      123.68554
O         33.56170       -6.59319      123.29787
H         33.75317       -3.38729      122.53555
H         35.35529       -4.40077      124.71637
H         35.67414       -4.51742      122.95349
N         35.64995       -7.00179      124.02581
C         35.69506       -8.45861      123.85166
C         37.15010       -8.86204      123.55122
O         38.03533       -8.06471      123.83022
C         35.25430       -9.14045      125.15092
C         33.85961       -8.75209      125.51745
O         32.81384       -9.04461      124.68351
O         33.69246       -8.20635      126.59656
H         36.48171       -6.52835      124.39969
H         35.02600       -8.75603      123.01441
H         35.94866       -8.81381      125.96170
H         35.30411      -10.24162      125.06996
N         37.55339      -10.04884      123.01431
C         36.73944      -11.16383      122.57664
C         35.81628      -10.82326      121.43768
O         36.18195      -10.06495      120.54970
H         38.57143      -10.17370      122.89810
H         36.18217      -11.60817      123.42480
H         37.42951      -11.94978      122.19749
N         34.60777      -11.44364      121.37328
C         33.61619      -11.19933      120.33504
C         33.10235       -9.77282      120.43658
O         32.80016       -9.30357      121.52502
C         32.51080      -12.28735      120.37860
C         31.41171      -12.07103      119.31886
O         31.97111      -12.40139      121.66929
H         34.39404      -12.14337      122.09979
H         34.09745      -11.33135      119.34092
H         33.01726      -13.24807      120.14165
H         31.04751      -12.76139      121.60638
H         30.73642      -12.95380      119.32802
H         30.80621      -11.16695      119.54654
H         31.84500      -11.98243      118.30120
N         33.04094       -9.02403      119.29805
C         32.70998       -7.61111      119.19533
C         31.25804       -7.29743      119.56749
O         30.86114       -7.38449      120.72012
C         33.77345       -6.73798      119.92391
C         35.13789       -6.78899      119.17871
C         33.32891       -5.26727      119.98833
C         36.32795       -6.36885      120.05317
H         33.28341       -9.48735      118.41206
H         32.80681       -7.34522      118.12299
H         33.88678       -7.12873      120.94989
H         35.08006       -6.12083      118.28714
H         35.36331       -7.79890      118.77917
H         33.19944       -4.86717      118.95792
H         32.36652       -5.17512      120.52324
H         34.07419       -4.65016      120.52535
H         36.02311       -5.82157      120.96629
H         36.87934       -7.27868      120.37342
H         37.02921       -5.72962      119.47581
N         30.45178       -6.80847      118.58187
C         29.12768       -6.23039      118.75243
C         28.08555       -6.94222      117.89365
O         26.94681       -6.49426      117.86667
C         29.23622       -4.70086      118.48668
C         29.82002       -4.29853      117.12912
O         30.08140       -4.15245      119.46207
H         30.83211       -6.77431      117.62696
H         28.77169       -6.33026      119.80132
H         28.21919       -4.24205      118.55848
H         29.50202       -3.70161      120.12211
H         29.90872       -3.19021      117.09123
H         30.85006       -4.69375      117.01385
H         29.18484       -4.63823      116.28797
N         28.37921       -8.09596      117.22067
C         27.36682       -8.90969      116.56024
C         26.62015       -9.71520      117.62436
O         27.22068      -10.58177      118.24517
C         28.03816       -9.72674      115.41708
C         27.08460      -10.70985      114.72812
O         28.51391       -8.81899      114.45280
H         29.33036       -8.48612      117.27339
H         26.63961       -8.23935      116.05093
H         28.89771      -10.33726      115.78859
H         29.39173       -8.47997      114.77418
H         27.48200      -10.98789      113.72589
H         27.00116      -11.64319      115.32498
H         26.07478      -10.27172      114.59476
N         25.31768       -9.39966      117.93679
C         24.50320      -10.04273      118.98096
C         25.20796      -10.08810      120.32130
O         25.63232      -11.15338      120.75145
C         24.06868      -11.43579      118.54107
C         23.01724      -11.35139      117.42908
C         22.88553      -12.72246      116.77875
C         22.14474      -12.69360      115.44012
N         20.74190      -12.30316      115.55776
H         24.87148       -8.63714      117.40767
H         23.55990       -9.46971      119.13025
H         23.60997      -11.99500      119.38806
H         24.98176      -11.97325      118.20886
H         23.34248      -10.61778      116.66327
H         22.04029      -11.00815      117.85026
H         22.42653      -13.43767      117.49528
H         23.91095      -13.07493      116.53344
H         22.20545      -13.71628      115.01139
H         22.67036      -11.99742      114.74755
H         20.65871      -11.31011      115.87241
H         20.30503      -12.38935      114.61131
H         20.23932      -12.93752      116.21924
N         25.30063       -8.96552      121.07591
C         26.00651       -8.93142      122.34612
C         27.07157       -7.86442      122.31337
O         28.23281       -8.23400      122.42710
C         25.05779       -8.78187      123.55636
C         24.50026      -10.13268      124.02732
C         23.73041       -9.97009      125.30900
O         22.84503       -9.13455      125.39835
O         24.02234      -10.74459      126.37222
H         24.85042       -8.10772      120.72826
H         26.56579       -9.87869      122.51397
H         24.20417       -8.11295      123.32509
H         25.63393       -8.36100      124.40941
H         25.33827      -10.84123      124.22103
H         23.84832      -10.56744      123.24302
N         26.83646       -6.52970      122.21502
C         25.56931       -5.84956      122.05925
H         24.82431       -6.18804      122.79098
H         25.71423       -4.76646      122.26422
H         25.20433       -5.93917      121.01702
H         27.65832       -5.94356      122.27856
Ca        31.22141       -7.70947      123.58622
O         29.14028       -8.25021      125.34087
H         28.22135       -7.89093      125.40094
H         29.11340       -9.12871      125.79401
O         30.56973      -10.52681      123.67761
H         30.77170      -10.76559      122.74293
H         31.16080      -11.10257      124.22443
O         31.20655       -6.55683      125.81185
H         31.77334       -5.78028      125.72803
H         31.79610       -7.17540      126.27683

Ca 1.0



