%chk=apoCaM-CA-Ng.loop1.water5.frame473.chk
%nprocshared=20
%mem=10GB
%nosave
#b3lyp/svp scf=(tight,noincore,xqc) Test 
#IOP(5/87=12) Density=Current Pop=(MK,readradii) iop(6/33=2) iop(6/42=6)

apoCaM-CA-Ng.loop1.water5.frame473 

   0  1 
C         47.96452       31.04686      -23.00180
C         46.68759       31.59579      -23.57530
O         45.61771       31.20438      -23.13171
H         48.85656       31.49608      -23.48981
H         48.01459       31.26985      -21.91585
H         48.00281       29.94822      -23.15361
N         46.72893       32.52214      -24.57224
C         45.54425       33.12773      -25.17734
C         44.75638       32.16178      -26.06949
O         43.83348       32.62090      -26.71432
C         45.95161       34.36502      -26.02024
C         46.55739       35.46560      -25.18294
O         47.71498       35.27508      -24.52210
O         46.00390       36.55180      -25.11336
H         47.65756       32.83838      -24.89028
H         44.86890       33.50765      -24.38186
H         45.04242       34.78704      -26.50269
H         46.65913       34.07102      -26.82508
N         45.04099       30.83457      -26.18887
C         44.36519       29.96436      -27.15106
C         43.57595       28.86930      -26.46441
O         44.06978       28.34588      -25.47601
C         45.44558       29.32994      -28.04639
C         46.08951       30.37739      -28.96008
C         47.18011       29.74198      -29.82970
C         47.86402       30.75657      -30.75971
N         46.96600       31.25212      -31.80546
H         45.79034       30.41313      -25.62698
H         43.66579       30.53572      -27.78055
H         45.00853       28.54421      -28.68614
H         46.21274       28.83401      -27.41117
H         46.54043       31.18833      -28.34818
H         45.29247       30.81108      -29.59791
H         46.75913       28.90921      -30.43551
H         47.95402       29.32192      -29.15089
H         48.72483       30.24956      -31.24791
H         48.26097       31.60712      -30.16220
H         47.49660       31.90817      -32.42255
H         46.61807       30.45425      -32.38577
H         46.15959       31.77347      -31.39776
N         42.40056       28.35105      -26.95651
C         41.64183       28.73258      -28.15710
C         42.49903       28.87646      -29.42231
O         42.65251       29.99057      -29.90305
C         40.75981       29.99211      -27.99874
C         39.83754       30.03232      -26.83980
O         39.74258       31.07010      -26.20739
O         39.05919       28.99744      -26.49647
H         42.01924       27.53864      -26.44512
H         40.89395       27.93298      -28.32170
H         40.10402       30.02183      -28.89255
H         41.38066       30.90447      -27.94771
N         43.08126       27.84038      -30.07628
C         42.90139       26.44411      -29.73902
C         43.60605       25.53134      -30.73968
O         44.35774       26.01538      -31.57668
H         43.63533       28.09479      -30.90869
H         41.81272       26.23302      -29.79792
H         43.26235       26.23824      -28.70864
N         43.37914       24.19079      -30.78925
C         42.46515       23.48494      -29.90016
C         41.12773       23.26111      -30.57755
O         41.00717       23.47144      -31.77626
C         43.10376       22.16676      -29.40593
C         43.39367       21.14264      -30.48522
O         43.97467       19.97767      -30.14447
O         43.10680       21.34068      -31.65605
H         43.81965       23.67019      -31.56162
H         42.26078       24.11023      -29.00755
H         42.43074       21.69086      -28.66213
H         44.06027       22.41334      -28.89644
N         40.05053       22.88682      -29.83166
C         38.72480       22.67428      -30.38790
C         38.22242       23.89288      -31.12973
O         37.89741       23.77767      -32.30293
H         40.16908       22.76754      -28.81407
H         38.02205       22.44099      -29.55810
H         38.75069       21.79965      -31.07279
N         38.15628       25.10151      -30.50826
C         37.70703       26.33054      -31.15820
C         38.87595       27.29382      -31.22637
O         39.54658       27.47937      -30.22607
C         36.51432       26.93473      -30.38975
C         35.32463       25.96360      -30.38297
O         36.12699       28.13097      -31.01683
H         38.46100       25.16142      -29.52329
H         37.35792       26.13610      -32.19722
H         36.83199       27.14426      -29.34141
H         35.56915       28.63165      -30.36601
H         35.00287       25.73841      -31.42321
H         35.59346       25.01178      -29.87826
H         34.46837       26.41386      -29.83859
N         39.17298       27.95064      -32.38336
C         40.37572       28.76496      -32.57329
C         40.11972       30.26543      -32.39733
O         40.90565       31.06383      -32.88687
C         41.07104       28.38031      -33.92717
C         40.22707       28.59404      -35.22131
C         41.49960       26.90030      -33.88668
C         39.78697       30.03098      -35.49213
H         38.51980       27.85315      -33.17280
H         41.11321       28.53591      -31.77902
H         42.00115       28.98379      -34.01915
H         39.32764       27.94380      -35.22509
H         40.85090       28.28580      -36.08950
H         40.61526       26.22991      -33.81570
H         42.06220       26.63166      -34.80703
H         42.15833       26.70797      -33.01667
H         40.66844       30.70512      -35.52925
H         39.26859       30.07736      -36.47292
H         39.06453       30.38069      -34.72928
N         39.05415       30.72038      -31.67780
C         38.66503       32.13484      -31.58168
C         39.66647       33.08237      -30.89603
O         39.46293       34.28528      -30.97650
C         37.29236       32.24362      -30.85925
C         37.37456       31.81762      -29.37548
O         36.35832       31.44010      -31.53639
H         38.43761       30.01580      -31.25173
H         38.53592       32.49355      -32.62684
H         36.95583       33.30360      -30.90727
H         35.47707       31.58143      -31.10245
H         37.69701       30.76206      -29.26545
H         38.08476       32.45797      -28.81544
H         36.38000       31.92344      -28.89451
N         40.70521       32.62087      -30.14670
C         41.64444       33.42960      -29.35443
C         40.94898       34.27335      -28.26991
O         39.73814       34.43364      -28.29574
C         42.59267       34.26087      -30.25504
C         43.32311       33.35130      -31.25374
O         43.55176       34.90873      -29.45884
H         40.83126       31.61030      -30.10603
H         42.29344       32.71153      -28.81254
H         41.99419       35.01883      -30.80812
H         43.99102       35.59413      -30.02671
H         43.90641       32.57660      -30.71207
H         42.60352       32.85029      -31.93124
H         44.02149       33.94846      -31.87658
N         41.67824       34.79585      -27.23827
C         41.13968       35.62760      -26.16292
C         41.07207       34.87891      -24.82117
O         40.62165       35.47934      -23.85508
C         42.02274       36.89843      -26.04247
C         42.03714       37.77433      -27.31808
C         40.70741       38.49160      -27.62226
C         40.36711       39.56910      -26.57524
N         39.11576       40.24944      -26.90472
H         42.68257       34.59374      -27.19717
H         40.09202       35.92198      -26.38103
H         43.06647       36.56661      -25.84561
H         41.72039       37.51365      -25.17217
H         42.31547       37.14135      -28.18769
H         42.82718       38.55077      -27.21736
H         39.88173       37.75613      -27.70974
H         40.81048       38.99898      -28.60671
H         41.19108       40.31767      -26.54352
H         40.26567       39.11998      -25.56623
H         38.32465       39.56564      -26.88818
H         38.93426       40.99230      -26.19105
H         39.18063       40.69581      -27.84812
N         41.43941       33.56705      -24.68716
C         41.28246       32.79054      -23.45108
C         42.05561       33.38146      -22.28924
O         43.25964       33.56604      -22.39246
C         41.72930       31.32097      -23.67003
C         41.64512       30.41122      -22.43073
C         40.32027       30.39635      -21.69277
O         40.30230       30.76564      -20.53016
O         39.17361       29.91038      -22.21863
H         41.79763       33.07254      -25.51171
H         40.20106       32.76243      -23.19421
H         42.78090       31.30167      -24.03419
H         41.11496       30.86209      -24.44462
H         42.42880       30.75086      -21.71984
H         41.90764       29.37431      -22.73343
N         41.41222       33.61665      -21.11003
C         42.07582       34.06003      -19.90264
H         43.15966       34.24054      -20.05567
H         41.60005       34.99399      -19.54099
H         41.96129       33.27634      -19.12216
H         40.40191       33.42258      -21.04006
Ca        38.68999       29.24531      -24.30992
O         40.28401       26.93731      -23.48559
H         40.54778       26.81747      -24.43236
H         39.40534       26.48601      -23.41435
O         34.63720       29.01657      -24.00355
H         34.40917       28.07634      -24.21396
H         34.08952       29.23483      -23.20829
O         35.96453       29.45181      -26.70860
H         35.46811       30.24905      -26.39498
H         36.03839       29.57536      -27.68772
O         36.55054       31.62939      -24.07381
H         36.77424       32.30138      -24.76582
H         35.74002       31.98731      -23.63165
O         36.70225       28.48387      -21.76274
H         35.78316       28.41800      -21.40227
H         37.27210       28.60194      -20.96186

Ca 1.0



