%chk=apoCaM-CA-Ng.loop1.water1.frame814.chk
%nprocshared=20
%mem=10GB
%nosave
#b3lyp/svp scf=(tight,noincore,xqc) Test 
#IOP(5/87=12) Density=Current Pop=(MK,readradii) iop(6/33=2) iop(6/42=6)

apoCaM-CA-Ng.loop1.water1.frame814 

   0  1 
C         88.60164      -14.24214       46.35775
C         89.47159      -13.09765       46.77516
O         90.60271      -13.33694       47.17522
H         87.60512      -13.89034       46.01856
H         89.09005      -14.79421       45.52887
H         88.46029      -14.92495       47.22186
N         89.00910      -11.81588       46.71795
C         89.81607      -10.67612       47.14558
C         90.26988      -10.82075       48.59159
O         89.73191      -11.61664       49.34794
C         89.14569       -9.31786       46.82444
C         87.68064       -9.28102       47.17376
O         87.23317       -9.38053       48.43788
O         86.86181       -9.21233       46.26983
H         88.05955      -11.65927       46.35104
H         90.75261      -10.70354       46.54181
H         89.21117       -9.19040       45.71964
H         89.70271       -8.47016       47.27999
N         91.42997      -10.21352       48.94325
C         92.20416      -10.54177       50.13452
C         91.54425      -10.11232       51.42210
O         91.47137      -10.94439       52.31752
C         93.62391       -9.94483       49.98951
C         94.38159      -10.69728       48.86920
C         95.62602       -9.95598       48.38043
C         96.32221      -10.76532       47.27193
N         97.38183       -9.98672       46.63436
H         91.85925       -9.58556       48.24484
H         92.34978      -11.64651       50.19224
H         94.21311      -10.05268       50.92782
H         93.52809       -8.86053       49.76291
H         93.72989      -10.82071       47.97895
H         94.64401      -11.71616       49.23484
H         96.33600       -9.76751       49.21419
H         95.29195       -8.98115       47.96261
H         95.58349      -11.05336       46.49003
H         96.74547      -11.69889       47.70659
H         98.08764       -9.67982       47.34111
H         97.85120      -10.57774       45.91035
H         96.96544       -9.15115       46.16133
N         91.10118       -8.83781       51.63531
C         90.70638       -8.40310       52.97294
C         89.59419       -9.25314       53.59697
O         88.81989       -9.83336       52.85099
C         90.42788       -6.88535       53.05741
C         89.14550       -6.33008       52.48801
O         88.26443       -7.01662       51.73637
O         88.87126       -5.17050       52.75285
H         91.14760       -8.15115       50.86705
H         91.61787       -8.56943       53.56392
H         91.28157       -6.32324       52.62226
H         90.39579       -6.62152       54.12870
N         89.43743       -9.42593       54.94839
C         90.29033       -8.87516       55.99327
C         91.67924       -9.47535       55.97764
O         91.81275      -10.67561       56.16827
H         88.64068      -10.00063       55.26576
H         89.84868       -9.11071       56.98591
H         90.31444       -7.77393       55.92106
N         92.76503       -8.68699       55.74003
C         94.13443       -9.18757       55.70511
C         94.60448       -9.48932       57.11508
O         94.54395       -8.60165       57.95615
C         95.05416       -8.12714       55.05600
C         96.48097       -8.58016       54.85767
O         96.88763       -9.81235       55.22126
O         97.28233       -7.81910       54.34063
H         92.60133       -7.68992       55.52839
H         94.18031      -10.08788       55.05105
H         95.05042       -7.20084       55.67083
H         94.64617       -7.87956       54.05110
N         95.13472      -10.70358       57.43850
C         95.66444      -10.98219       58.76422
C         94.59542      -11.08476       59.82820
O         94.95843      -11.17575       60.99349
H         95.22972      -11.42721       56.71075
H         96.38688      -10.17892       59.03001
H         96.21807      -11.94509       58.75764
N         93.26823      -11.12606       59.51529
C         92.21137      -11.23276       60.51183
C         91.23491      -10.08071       60.37607
O         91.32994       -9.30408       59.43292
C         91.49070      -12.60203       60.38889
C         90.83487      -12.82824       59.01640
O         92.41974      -13.62682       60.63232
H         92.98357      -11.10297       58.52711
H         92.64158      -11.17330       61.53649
H         90.69564      -12.63773       61.16951
H         91.90360      -14.42494       60.92068
H         90.29991      -13.80132       59.01519
H         90.10107      -12.02866       58.78747
H         91.59458      -12.86047       58.20885
N         90.26214       -9.91229       61.31048
C         89.22476       -8.89352       61.22827
C         89.40739       -7.85249       62.31893
O         89.12336       -6.69253       62.06059
C         87.81398       -9.55586       61.32713
C         87.66771      -10.68257       60.27009
C         86.69938       -8.49749       61.16637
C         86.34574      -11.44829       60.35476
H         90.24275      -10.56044       62.11329
H         89.27573       -8.36274       60.24991
H         87.71429      -10.01798       62.33546
H         88.46682      -11.43347       60.43739
H         87.78635      -10.26712       59.24576
H         85.69384       -8.94374       61.29433
H         86.77653       -7.70988       61.94292
H         86.75784       -8.02007       60.16459
H         85.48183      -10.79976       60.10806
H         86.35705      -12.28024       59.61951
H         86.21252      -11.87608       61.37127
N         89.83926       -8.19483       63.56955
C         89.84940       -7.25674       64.68516
C         88.96546       -7.81463       65.78855
O         88.61958       -8.98652       65.76684
C         91.29075       -6.97633       65.17015
C         92.12181       -6.32221       64.05747
O         91.25887       -6.11067       66.27644
H         90.12996       -9.16089       63.76628
H         89.40004       -6.28910       64.37079
H         91.75655       -7.94544       65.46539
H         92.13437       -6.19648       66.73737
H         93.15278       -6.12305       64.41921
H         92.18728       -6.98375       63.16870
H         91.66431       -5.35512       63.75395
N         88.47278       -6.97284       66.73386
C         87.51212       -7.38082       67.74950
C         86.14546       -6.84687       67.36480
O         85.20304       -7.62722       67.31018
C         87.98116       -6.90198       69.14446
C         87.00639       -7.32722       70.24965
O         88.12616       -5.50478       69.16192
H         88.72418       -5.97647       66.67110
H         87.43136       -8.49044       67.80071
H         88.96755       -7.38753       69.33809
H         88.82225       -5.29301       69.83749
H         86.01069       -6.85776       70.09891
H         86.88762       -8.43148       70.25776
H         87.39533       -7.00724       71.23924
N         85.97345       -5.53438       67.05001
C         84.68975       -4.94324       66.69348
C         84.69685       -4.40384       65.27166
O         85.74390       -4.34531       64.63882
C         84.35107       -3.79647       67.68235
C         85.46263       -2.72500       67.73037
C         85.07919       -1.49113       68.54350
C         86.26995       -0.51896       68.59049
N         85.92209        0.71447       69.29010
H         86.80207       -4.92551       67.04539
H         83.88509       -5.70978       66.74247
H         84.21157       -4.21048       68.70462
H         83.39193       -3.32747       67.37536
H         85.70316       -2.38604       66.69947
H         86.37358       -3.16336       68.18912
H         84.80047       -1.78538       69.57847
H         84.20865       -0.99832       68.05832
H         86.59330       -0.26712       67.55523
H         87.12452       -1.00970       69.10983
H         85.61541        0.50216       70.26665
H         86.76421        1.33379       69.32312
H         85.15865        1.20982       68.77481
N         83.52793       -3.96571       64.72235
C         83.42426       -3.29799       63.42988
C         84.03609       -4.12400       62.29466
O         84.96904       -3.61838       61.68689
C         81.95828       -2.86774       63.17785
C         81.77610       -2.06192       61.88546
C         80.33573       -1.67343       61.70293
O         79.47658       -2.53354       61.58652
O         79.98538       -0.37403       61.65887
H         82.66571       -4.07907       65.27950
H         84.01153       -2.35350       63.50205
H         81.63107       -2.23097       64.03050
H         81.28839       -3.74413       63.16793
H         82.09231       -2.66241       61.00653
H         82.40339       -1.14554       61.93651
N         83.64337       -5.38028       61.93108
C         82.57648       -6.13879       62.54268
H         81.59811       -5.66437       62.35146
H         82.52995       -7.14707       62.07847
H         82.75905       -6.26492       63.62870
H         84.16099       -5.84221       61.16622
Ca        88.28428       -8.77272       50.32812
O         86.97649      -12.39193       51.05951
H         87.34673      -12.39014       50.14166
H         86.55870      -13.28463       51.15367

Ca 1.0



