%chk=apoCaM-CA-Ng.loop2.water4.frame13.chk
%nprocshared=20
%mem=10GB
%nosave
#b3lyp/svp scf=(tight,noincore,xqc) Test 
#IOP(5/87=12) Density=Current Pop=(MK,readradii) iop(6/33=2) iop(6/42=6)

apoCaM-CA-Ng.loop2.water4.frame13 

   -2  1 
C         60.51668       57.14594       61.79805
C         59.37009       58.04265       62.16213
O         58.26463       57.55343       62.34837
H         61.31782       57.23134       62.56171
H         60.18821       56.08547       61.74295
H         60.92192       57.44418       60.80837
N         59.56689       59.38620       62.28950
C         58.49111       60.30919       62.64412
C         57.42041       60.39048       61.55983
O         56.33995       60.88381       61.84835
C         59.06812       61.71707       62.89928
C         58.02515       62.69258       63.37059
O         57.35760       62.46685       64.51812
O         57.77580       63.69029       62.71280
H         60.52273       59.75237       62.15585
H         58.03370       59.93098       63.58682
H         59.53423       62.08929       61.95881
H         59.85862       61.65667       63.67734
N         57.66124       59.96540       60.28493
C         56.69154       60.00330       59.19681
C         55.51172       59.10194       59.50311
O         54.36573       59.50543       59.35553
C         56.28362       61.44727       58.85929
H         58.58940       59.58597       60.04903
H         57.19113       59.57987       58.29717
H         57.18734       62.05026       58.63001
H         55.61571       61.46146       57.97257
H         55.74543       61.92757       59.70248
N         55.74840       57.84231       59.96584
C         54.72240       56.85479       60.26624
C         53.71097       57.32826       61.31882
O         52.65605       56.72085       61.44213
C         54.06128       56.37320       58.94969
C         53.42960       55.00980       59.09313
O         53.49878       54.36330       60.27309
O         52.99384       54.43276       58.10982
H         56.72697       57.55122       60.11234
H         55.25873       55.97391       60.68561
H         54.86918       56.23158       58.19721
H         53.34811       57.12588       58.55207
N         53.97127       58.39509       62.13385
C         53.02614       58.91055       63.11438
C         52.72947       57.96881       64.27061
O         51.88565       58.31881       65.08353
H         54.86427       58.89263       62.04770
H         52.07908       59.16267       62.58761
H         53.42959       59.85060       63.54902
N         53.35014       56.76197       64.41261
C         52.99189       55.80315       65.45511
C         53.38926       56.28984       66.83990
O         54.56979       56.49587       67.08482
C         53.67037       54.44243       65.19198
C         53.32931       53.89874       63.82686
N         52.04843       53.63485       63.47701
O         54.22794       53.70188       63.02414
H         54.05989       56.48182       63.72309
H         51.89229       55.63999       65.41194
H         53.34742       53.70888       65.96163
H         54.77488       54.56286       65.26538
H         51.27386       53.78929       64.13785
H         51.82822       53.27743       62.53639
N         52.44554       56.47559       67.80586
C         52.76072       56.87809       69.16839
C         53.43970       55.76562       69.94441
O         52.85254       54.70046       70.07166
H         51.45158       56.34189       67.56505
H         51.81133       57.09991       69.70211
H         53.36288       57.81236       69.15496
N         54.66572       55.95391       70.51598
C         55.35963       54.94666       71.32661
C         56.62727       54.45012       70.63279
O         57.30477       53.58981       71.17468
C         55.64133       55.54702       72.72860
C         56.21714       54.54474       73.73782
O         56.52047       56.63920       72.62486
H         55.13592       56.86064       70.36936
H         54.70885       54.05467       71.46451
H         54.66153       55.87013       73.15591
H         55.96960       57.46461       72.62293
H         55.54890       53.66283       73.83470
H         57.23344       54.20542       73.45685
H         56.30707       55.03083       74.73162
N         56.95991       54.88227       69.38710
C         58.07496       54.34920       68.61592
C         57.50974       53.42932       67.55518
O         56.29622       53.33065       67.42599
C         58.94823       55.50237       68.00757
C         58.08473       56.56548       67.26404
C         59.80752       56.14595       69.10796
C         58.88409       57.60464       66.47739
H         56.32606       55.52565       68.90177
H         58.72197       53.69415       69.24076
H         59.65675       55.05124       67.27963
H         57.45724       57.12405       67.99167
H         57.41749       56.05093       66.53998
H         60.44405       55.37163       69.58796
H         60.49755       56.90456       68.68581
H         59.17320       56.62157       69.88447
H         59.49310       57.11059       65.69278
H         58.17612       58.30698       65.98550
H         59.53917       58.20586       67.13905
N         58.34521       52.70770       66.75943
C         57.85687       51.87137       65.67479
C         58.38600       50.42837       65.77209
O         58.17578       49.66430       64.84082
C         58.20575       52.62717       64.37841
C         57.42393       52.20389       63.16999
O         57.54897       52.84224       62.13837
O         56.53620       51.19244       63.21974
H         59.36549       52.81330       66.87048
H         56.74714       51.81392       65.70160
H         59.29634       52.60641       64.18606
H         57.91635       53.69205       64.53145
N         59.01505       49.96309       66.89789
C         59.47835       48.58055       67.07751
C         60.62134       48.26060       66.12083
O         61.66607       48.88930       66.24964
C         59.93906       48.38439       68.54647
C         60.59561       47.05224       68.84888
C         59.91446       45.83440       68.67515
C         61.91693       47.03087       69.33557
C         60.54950       44.62250       68.98085
C         62.54397       45.82122       69.64127
C         61.86177       44.61705       69.46394
H         59.12499       50.60609       67.69602
H         58.62054       47.89606       66.91733
H         59.06106       48.51296       69.21680
H         60.65954       49.19588       68.79109
H         58.89674       45.82023       68.30797
H         62.46476       47.95293       69.48549
H         60.02529       43.68504       68.84756
H         63.55902       45.81991       70.01855
H         62.35114       43.68133       69.70371
N         60.52921       47.30558       65.14045
C         61.62328       46.94716       64.24842
C         62.08765       48.13421       63.42272
O         63.28320       48.38675       63.41105
C         61.08234       45.75393       63.44914
C         59.58691       45.97432       63.45320
C         59.34472       46.50829       64.86304
H         62.50847       46.57710       64.81607
H         61.55756       45.57928       62.45998
H         61.24159       44.84129       64.06846
H         59.35927       46.77517       62.72289
H         58.97245       45.08915       63.18227
H         58.39930       47.08652       64.84813
H         59.29452       45.68853       65.61377
N         61.21260       48.95397       62.77436
C         61.64527       50.16941       62.08833
C         62.38753       51.07314       63.05792
O         63.51120       51.45370       62.75644
C         60.44409       50.90405       61.45416
C         59.88565       50.11255       60.25793
C         58.75506       50.82854       59.57720
O         58.87667       51.20847       58.42372
O         57.58629       51.01431       60.21394
H         60.20690       48.75239       62.82782
H         62.34609       49.91066       61.26293
H         60.78817       51.89041       61.07018
H         59.66366       51.07932       62.22044
H         59.52887       49.11014       60.57355
H         60.70908       49.97629       59.52280
N         61.84983       51.40410       64.26440
C         62.54294       52.20884       65.25204
H         63.53479       52.55972       64.89492
H         61.92816       53.09591       65.50736
H         62.70372       51.60511       66.17036
H         60.92244       51.03524       64.51722
Ca        54.55631       52.37772       60.42509
O         56.42129       53.74109       58.34394
H         56.81072       52.93195       57.92774
H         57.17170       54.15179       58.84226
O         54.55015       50.46104       58.26253
H         54.84184       51.19796       57.66915
H         53.56805       50.57014       58.32562
O         54.81367       49.47241       61.53019
H         55.76130       49.25137       61.34739
H         54.34041       48.60550       61.46838
O         52.05676       51.06073       60.64178
H         51.88768       51.91321       60.16626
H         51.49737       51.11379       61.45582

Ca 1.0



