%chk=apoCaM-CA-Ng.loop4.water4.frame509.chk
%nprocshared=20
%mem=10GB
%nosave
#b3lyp/svp scf=(tight,noincore,xqc) Test 
#IOP(5/87=12) Density=Current Pop=(MK,readradii) iop(6/33=2) iop(6/42=6)

apoCaM-CA-Ng.loop4.water4.frame509 

   -3  1 
C         94.69309       46.82950       41.65671
C         95.02113       45.36677       41.62881
O         95.25463       44.79313       42.68246
H         93.78512       46.98939       42.27563
H         95.54199       47.39529       42.09166
H         94.49128       47.21843       40.63590
N         95.04261       44.68978       40.44315
C         95.32113       43.26087       40.28066
C         94.20717       42.36257       40.84294
O         94.31152       41.15030       40.71369
C         96.68846       42.85838       40.89906
C         97.71273       43.96743       40.92659
O         98.13867       44.32819       42.01353
O         98.11713       44.63872       39.82859
H         94.86920       45.22243       39.57679
H         95.38043       43.07969       39.18390
H         97.07901       41.95158       40.38956
H         96.52354       42.57983       41.96428
N         93.14234       42.88569       41.52396
C         92.13079       42.09043       42.21821
C         91.22962       41.33878       41.23765
O         91.23826       41.67704       40.06249
C         91.32858       42.99271       43.22775
C         90.55697       44.14789       42.53230
C         92.29450       43.50212       44.32103
C         89.70107       44.96838       43.49878
H         93.08610       43.89653       41.62667
H         92.68366       41.32768       42.80997
H         90.56136       42.39136       43.74369
H         89.87718       43.71108       41.77043
H         91.23908       44.85386       42.01904
H         92.81683       42.64450       44.79624
H         93.06252       44.18262       43.90692
H         91.75537       44.03352       45.12941
H         90.32961       45.49658       44.24457
H         89.14369       45.74110       42.92940
H         88.97366       44.31418       44.02350
N         90.47002       40.25568       41.59673
C         90.44039       39.66544       42.93230
C         91.34644       38.46115       43.04789
O         91.69616       38.14003       44.17010
C         88.99604       39.35116       43.37986
C         88.31553       38.32314       42.50684
O         87.29367       38.61095       41.90481
O         88.81472       37.07634       42.39893
H         89.95122       39.76968       40.84804
H         90.86133       40.36191       43.66680
H         88.40489       40.29281       43.37060
H         89.00623       38.97060       44.42187
N         91.79174       37.77329       41.95656
C         92.65960       36.60473       42.00591
C         91.99636       35.41189       42.66870
O         91.54739       34.51945       41.96385
H         91.50322       38.08427       41.01829
H         93.63224       36.84188       42.48832
H         92.88244       36.32055       40.95328
N         91.94929       35.30723       44.02602
C         91.33478       34.20384       44.75426
C         90.21980       34.70389       45.67232
O         89.79777       33.95661       46.54494
C         92.42023       33.44618       45.56053
C         93.04784       34.23981       46.68116
O         93.70841       35.23928       46.45000
O         92.90516       33.82370       47.95421
H         92.40122       36.03548       44.58769
H         90.89339       33.45890       44.05661
H         93.21801       33.09595       44.87013
H         91.94808       32.54252       46.00426
N         89.68046       35.95243       45.53364
C         88.70976       36.50418       46.46377
C         89.34663       36.94284       47.77387
O         88.61477       37.37771       48.64997
H         89.94801       36.53853       44.73566
H         87.89651       35.76460       46.63197
H         88.24729       37.41055       46.02006
N         90.70004       36.88904       47.96957
C         91.39415       37.27090       49.19496
C         91.24661       38.76502       49.47859
O         90.81773       39.14425       50.55974
C         90.96298       36.33500       50.35377
C         91.84505       36.46583       51.60804
C         91.39904       35.51702       52.69197
N         91.43861       34.17672       52.50465
O         91.00633       35.96538       53.75888
H         91.30535       36.55155       47.21021
H         92.47878       37.09023       49.01975
H         91.04586       35.28913       49.98533
H         89.90105       36.51885       50.62383
H         91.79437       37.49913       52.00467
H         92.90343       36.24765       51.35064
H         91.77893       33.77436       51.61962
H         91.13566       33.53611       53.25332
N         91.58232       39.67896       48.52115
C         91.51425       41.12880       48.72425
C         92.77928       41.86877       48.26807
O         92.78779       43.08577       48.38947
C         90.25785       41.72829       48.02772
C         90.17135       41.36053       46.54201
C         88.97138       41.31163       48.75186
H         91.84990       39.32509       47.58960
H         91.41542       41.36447       49.80776
H         90.30921       42.83712       48.11306
H         90.02794       40.26770       46.40982
H         89.31344       41.88397       46.06877
H         91.09876       41.65974       46.02297
H         88.82301       40.21359       48.71153
H         89.01663       41.63068       49.81630
H         88.09465       41.81203       48.28813
N         93.87813       41.24384       47.74191
C         95.05176       41.99208       47.27166
C         95.71800       42.80691       48.37597
O         95.34013       42.70529       49.53598
C         96.09222       41.02824       46.64400
C         95.59885       40.42301       45.35651
N         95.36205       41.20992       44.28020
O         95.44191       39.21444       45.27183
H         93.88083       40.21919       47.64649
H         94.71897       42.72078       46.50138
H         96.34448       40.23578       47.38393
H         97.03474       41.55596       46.39073
H         95.51404       42.22863       44.32714
H         95.04589       40.79986       43.39030
N         96.74592       43.64591       48.05311
C         97.49351       44.44999       49.01156
C         97.52160       45.91000       48.58109
O         97.85973       46.19947       47.44237
C         98.90895       43.85431       49.17803
C         99.71845       43.77903       47.90520
C        100.35004       44.91885       47.37811
C         99.85743       42.55011       47.23974
C        101.09214       44.83290       46.19900
C        100.59736       42.46643       46.05901
C        101.21805       43.60444       45.53597
O        101.93952       43.50439       44.40371
H         97.04840       43.69143       47.06774
H         97.03735       44.38059       50.02425
H         98.75517       42.82300       49.56689
H         99.48774       44.39668       49.95750
H        100.27716       45.87452       47.88202
H         99.38289       41.65758       47.62866
H        101.57089       45.72030       45.80473
H        100.68976       41.51438       45.55255
H        102.40601       44.26441       44.02940
N         97.19257       46.89200       49.46241
C         97.27930       48.32091       49.15185
C         98.72977       48.70458       48.82978
O         99.57511       48.52014       49.69372
C         96.69370       49.13430       50.33697
C         97.48424       49.01025       51.66156
C         96.65373       49.44155       52.83477
O         97.04601       50.46991       53.60881
O         95.63562       48.82818       53.11714
H         96.87473       46.59972       50.39829
H         96.61612       48.51745       48.28604
H         95.66498       48.73774       50.48794
H         96.59894       50.21073       50.07416
H         98.40730       49.62584       51.60092
H         97.78519       47.96234       51.86187
N         99.14941       49.17601       47.61476
C         98.29559       49.41119       46.45707
C         97.42737       50.63469       46.63143
O         97.92659       51.67248       47.04482
C         99.10274       49.58919       45.15057
C         99.90755       48.32952       44.79712
C        100.17206       48.25263       43.31924
O         99.57492       47.24608       42.64996
O        100.84418       49.08975       42.73866
H        100.16386       49.32957       47.49658
H         97.66295       48.51698       46.27163
H         99.76557       50.48320       45.16261
H         98.34064       49.74033       44.35116
H         99.28823       47.43767       45.03787
H        100.84013       48.26346       45.39689
N         96.13265       50.60394       46.20843
C         95.25910       51.75851       46.21422
H         94.34410       51.52553       46.79497
H         95.74405       52.65594       46.65169
H         94.96941       51.99732       45.16791
H         95.75529       49.73097       45.80955
Ca        99.25756       46.47095       40.54478
O         99.19802       47.46015       37.65649
H         98.55315       47.31292       36.92001
H         99.64856       48.31181       37.42862
O        101.09344       44.75829       41.86418
H        101.87686       45.36185       41.81571
H        101.40300       43.90711       41.46607
O        101.36537       45.34572       38.57844
H        101.96607       44.63975       38.92591
H        101.30555       45.16669       37.60658
O        101.64371       48.40455       39.75881
H        101.92250       47.94630       40.59081
H        102.48826       48.55079       39.26380

Ca 1.0



