%chk=apoCaM-CA-Ng.loop3.water4.frame141.chk
%nprocshared=20
%mem=10GB
%nosave
#b3lyp/svp scf=(tight,noincore,xqc) Test 
#IOP(5/87=12) Density=Current Pop=(MK,readradii) iop(6/33=2) iop(6/42=6)

apoCaM-CA-Ng.loop3.water4.frame141 

   0  1 
C         50.00595       21.62951       -4.11146
C         50.48221       20.22552       -4.34529
O         50.52098       19.44708       -3.40464
H         48.97766       21.59876       -3.69226
H         50.67867       22.15189       -3.40185
H         49.97099       22.20548       -5.06126
N         50.84470       19.82774       -5.59703
C         51.19960       18.46296       -5.96626
C         52.45444       17.94845       -5.26181
O         52.70001       16.75037       -5.30983
C         49.97725       17.53267       -5.74578
C         49.92930       16.34289       -6.67720
O         50.77475       16.17310       -7.54292
O         48.88895       15.49212       -6.60122
H         50.81729       20.52118       -6.36006
H         51.40672       18.48351       -7.05864
H         49.04715       18.10156       -5.95675
H         49.94094       17.19654       -4.68644
N         53.33557       18.79980       -4.65218
C         54.55227       18.35115       -3.98296
C         54.68131       19.03741       -2.62475
O         55.72979       19.58052       -2.30373
C         55.75936       18.59127       -4.92451
C         55.70891       17.60799       -6.11095
C         56.89802       17.74482       -7.06764
C         56.92286       16.55292       -8.04155
N         58.09721       16.59558       -8.91030
H         53.17913       19.81642       -4.70702
H         54.49965       17.26083       -3.76311
H         56.70675       18.39595       -4.37735
H         55.76429       19.64772       -5.27560
H         54.77211       17.72423       -6.69652
H         55.73139       16.58487       -5.67528
H         57.84131       17.73466       -6.48233
H         56.83058       18.70655       -7.62456
H         55.99775       16.54007       -8.66028
H         56.95784       15.60858       -7.45211
H         58.09979       15.74453       -9.51860
H         58.07084       17.44858       -9.51339
H         58.96923       16.59311       -8.33226
N         53.61388       19.05753       -1.77720
C         53.62770       19.68028       -0.45392
C         54.42285       18.81059        0.51660
O         54.29921       17.59477        0.45621
C         52.16949       19.91162        0.01121
C         52.08699       20.66561        1.31546
O         52.06974       20.06587        2.37002
O         52.14575       22.00374        1.35850
H         52.73176       18.63903       -2.11006
H         54.07388       20.69676       -0.52151
H         51.61163       18.95228        0.06601
H         51.65918       20.53271       -0.75692
N         55.26536       19.36475        1.43929
C         56.09823       18.56877        2.33990
C         55.33575       17.65559        3.29702
O         55.97939       16.85148        3.95572
H         55.34912       20.39122        1.48282
H         56.74371       19.24378        2.94595
H         56.76602       17.94021        1.71441
N         53.98538       17.74632        3.46078
C         53.18862       16.90138        4.34736
C         51.87552       16.42977        3.68963
O         51.09919       15.75433        4.34962
C         52.97922       17.64459        5.68507
C         52.03524       18.81659        5.65975
N         50.70014       18.61411        5.73896
O         52.47743       19.95532        5.67977
H         53.51729       18.51566        2.99965
H         53.77850       15.99712        4.61463
H         53.97965       17.99593        6.02380
H         52.61582       16.94521        6.46746
H         50.30440       17.66557        5.78162
H         50.05801       19.40931        5.82750
N         51.57923       16.71455        2.38489
C         50.37027       16.30113        1.68727
C         49.15161       17.12311        2.05249
O         48.11132       16.55304        2.34719
H         52.26604       17.20703        1.80590
H         50.20099       15.20725        1.79520
H         50.52669       16.49775        0.60321
N         49.20503       18.48417        1.97755
C         48.05981       19.37731        2.12000
C         48.15066       20.25367        3.34372
O         49.21522       20.40146        3.91456
C         48.00026       20.35571        0.92724
C         47.49062       19.77220       -0.35622
C         46.24992       20.22210       -0.83553
C         48.22069       18.83404       -1.10351
C         45.74403       19.75517       -2.04192
C         47.71162       18.37132       -2.32444
C         46.47317       18.83704       -2.79769
O         45.97591       18.41959       -3.97785
H         50.11009       18.91070        1.77697
H         47.11771       18.79566        2.22084
H         48.99410       20.83360        0.76473
H         47.31761       21.19037        1.19623
H         45.66969       20.94428       -0.27323
H         49.18483       18.47943       -0.76124
H         44.78709       20.12124       -2.38973
H         48.28202       17.66060       -2.90688
H         46.45734       17.80998       -4.55304
N         47.03167       20.92914        3.74857
C         46.99474       21.84658        4.87939
C         47.35844       21.07207        6.13475
O         48.32655       21.43752        6.77349
C         45.59708       22.54825        5.01681
C         45.12373       23.28392        3.72577
C         45.56722       23.55587        6.18869
C         46.02657       24.43340        3.25908
H         46.16329       20.76385        3.22072
H         47.74669       22.65031        4.71102
H         44.84375       21.75738        5.23053
H         44.10832       23.69915        3.91157
H         45.01767       22.57282        2.88316
H         45.86004       23.10803        7.14208
H         46.27575       24.39164        6.04068
H         44.53978       23.96359        6.31209
H         47.03586       24.06121        2.99086
H         45.57950       24.90677        2.36009
H         46.11765       25.22617        4.02802
N         46.67305       19.95500        6.52376
C         47.05079       19.19602        7.72134
C         46.72054       19.94204        9.01792
O         47.21790       19.55452       10.06557
C         46.42465       17.79839        7.70380
O         46.81078       17.10813        6.54364
H         45.90756       19.61218        5.92382
H         48.15506       19.05007        7.68731
H         45.31810       17.88254        7.71560
H         46.73148       17.21654        8.60166
H         47.77720       16.89729        6.64241
N         45.95799       21.07260        8.99526
C         45.82341       22.04156       10.08042
C         47.19297       22.44034       10.62291
O         47.37936       22.53135       11.82843
C         44.83830       21.58329       11.15708
H         45.52032       21.33082        8.10824
H         45.37596       22.95521        9.62673
H         45.22051       20.69779       11.70269
H         44.66564       22.41307       11.87814
H         43.86197       21.33494       10.68790
N         48.21929       22.63108        9.74841
C         49.58338       22.98576       10.11267
C         50.04694       24.15840        9.26865
O         49.34020       24.54647        8.34678
C         50.50339       21.77999        9.89148
H         48.02400       22.48602        8.75693
H         49.62848       23.27008       11.18610
H         50.17478       20.93544       10.53500
H         50.47264       21.44619        8.83174
H         51.55220       22.02928       10.15844
N         51.20887       24.81377        9.56734
C         51.66672       26.01698        8.87006
C         50.50117       26.99235        8.73151
O         50.19161       27.42286        7.62746
C         52.28843       25.66957        7.49636
C         53.54098       24.77607        7.58510
C         53.94796       24.36642        6.19401
O         55.04211       24.64817        5.73040
O         53.04466       23.68008        5.47400
H         51.74303       24.50786       10.39445
H         52.45820       26.49855        9.48438
H         52.58759       26.60717        6.97612
H         51.51042       25.16871        6.88172
H         53.30928       23.85116        8.15737
H         54.36146       25.31796        8.10499
N         49.75299       27.30785        9.82494
C         48.54866       28.11132        9.76135
H         47.68911       27.50409       10.11959
H         48.66077       28.99946       10.41379
H         48.31595       28.45020        8.72954
H         50.01617       26.91852       10.74264
Ca        52.58985       22.76865        3.45146
O         54.35264       23.64924        1.42747
H         54.47225       24.16889        2.26185
H         54.95987       22.87413        1.52852
O         54.94004       21.15496        4.18733
H         55.30394       20.88038        5.06561
H         55.40413       22.00438        3.97888
O         50.66450       24.79147        2.83583
H         49.90560       24.19672        2.61053
H         50.56446       24.96704        3.80535
O         50.89626       22.53573        5.97486
H         50.29138       21.91649        5.50894
H         50.35067       22.99249        6.65693

Ca 1.0



