%chk=apoCaM-CA-Ng.loop4.water4.frame767.chk
%nprocshared=20
%mem=10GB
%nosave
#b3lyp/svp scf=(tight,noincore,xqc) Test 
#IOP(5/87=12) Density=Current Pop=(MK,readradii) iop(6/33=2) iop(6/42=6)

apoCaM-CA-Ng.loop4.water4.frame767 

   -3  1 
C        101.60501        6.80563       28.80713
C        102.71797        6.65573       29.80176
O        103.02190        5.53635       30.18536
H        100.79362        7.42515       29.24253
H        101.98890        7.29337       27.88673
H        101.18501        5.81287       28.53405
N        103.37358        7.75583       30.27194
C        104.46716        7.69734       31.23867
C        105.66146        6.97961       30.63198
O        106.02098        5.89690       31.07411
C        104.01452        7.07875       32.58545
C        102.89065        7.82844       33.24963
O        102.43724        7.40471       34.44418
O        102.38921        8.81480       32.73237
H        103.08083        8.68507       29.93203
H        104.80141        8.73369       31.47332
H        104.87954        7.09125       33.28292
H        103.70158        6.02356       32.45615
N        106.35031        7.57840       29.62016
C        107.52637        6.99616       28.96711
C        108.77367        7.78530       29.35796
O        108.62168        8.83562       29.96789
C        107.29802        6.94020       27.41709
C        107.03985        8.34523       26.79882
C        106.15263        5.96428       27.11091
C        106.94502        8.34197       25.27144
H        106.04767        8.52252       29.33927
H        107.69281        5.96755       29.35280
H        108.20245        6.53292       26.92992
H        107.88050        9.01835       27.07198
H        106.09791        8.78503       27.18623
H        106.39306        4.97093       27.54361
H        105.19517        6.32729       27.54181
H        106.02232        5.81522       26.02090
H        107.87710        7.93568       24.82626
H        106.07557        7.75095       24.91945
H        106.80373        9.38333       24.91101
N        110.05554        7.38101       29.09524
C        110.48405        6.15301       28.42642
C        111.44822        5.37957       29.31978
O        112.34656        5.98509       29.89002
C        111.20496        6.55414       27.11958
C        111.61822        5.40164       26.23313
O        111.32699        4.12437       26.54340
O        112.21298        5.63516       25.19398
H        110.81002        8.02006       29.39522
H        109.62876        5.50087       28.16602
H        112.10878        7.15019       27.37452
H        110.52645        7.19762       26.51995
N        111.39357        4.01863       29.39291
C        112.39007        3.24677       30.12186
C        112.32443        1.78167       29.75096
O        113.30896        1.24625       29.26038
H        110.67360        3.52043       28.84819
H        112.24511        3.38697       31.21487
H        113.40651        3.61243       29.85326
N        111.18199        1.07301       29.94761
C        111.03310       -0.33697       29.59594
C        111.28633       -0.61161       28.11849
O        112.03353       -1.53560       27.82391
C        109.65938       -0.88006       30.05870
C        108.45280       -0.10507       29.58637
O        107.65544        0.49330       30.49122
O        108.16629       -0.03205       28.40461
H        110.38332        1.56587       30.37476
H        111.78324       -0.93218       30.16682
H        109.65647       -0.84513       31.16990
H        109.56208       -1.94765       29.76093
N        110.72434        0.14336       27.13192
C        110.91750       -0.15305       25.72012
C        110.14941       -1.38072       25.24955
O        110.29819       -1.72838       24.08771
H        110.17843        0.97980       27.38285
H        112.00565       -0.26934       25.51549
H        110.55374        0.70311       25.11227
N        109.28153       -2.05993       26.06443
C        108.50009       -3.23068       25.66581
C        107.47492       -2.94327       24.57323
O        106.89037       -3.89304       24.06786
C        109.43005       -4.42899       25.33795
C        110.29217       -4.84156       26.55324
C        109.50314       -5.39974       27.72427
N        110.13854       -5.71434       28.87542
O        108.29683       -5.58125       27.64317
H        109.15324       -1.75088       27.03230
H        107.87478       -3.53447       26.52674
H        110.09732       -4.16738       24.49088
H        108.83268       -5.31262       25.02374
H        110.87727       -3.96089       26.89291
H        111.01317       -5.62492       26.23620
H        111.15380       -5.57148       28.97278
H        109.60977       -6.09223       29.67621
N        107.12572       -1.66956       24.22543
C        106.09821       -1.35264       23.23325
C        104.92575       -0.56623       23.83030
O        104.02237       -0.23219       23.07952
C        106.72780       -0.54146       22.05885
C        107.31281        0.81291       22.50992
C        107.80569       -1.35992       21.33658
H        107.58976       -0.88182       24.69784
H        105.66516       -2.28404       22.80545
H        105.92718       -0.32946       21.31565
H        108.16024        0.68138       23.21404
H        107.69006        1.37657       21.63086
H        106.53514        1.43559       22.99954
H        107.37404       -2.30952       20.95613
H        108.20327       -0.78826       20.47075
H        108.64897       -1.59710       22.01686
N        104.90193       -0.17590       25.14146
C        103.94239        0.79333       25.66398
C        103.27406        0.31488       26.94531
O        103.96942       -0.15988       27.82975
C        104.73559        2.07382       25.97188
C        103.84125        3.16949       26.48171
N        104.00714        3.66219       27.72732
O        102.95281        3.61010       25.76801
H        105.66141       -0.46090       25.77301
H        103.17063        1.06071       24.90955
H        105.23919        2.43318       25.04822
H        105.52679        1.84150       26.71924
H        104.74297        3.29968       28.35161
H        103.38998        4.40940       28.06428
N        101.93226        0.52496       27.14920
C        101.28058        0.25150       28.43925
C         99.75948        0.46680       28.37121
O         99.26491        0.99913       27.38966
C        101.87207        1.21123       29.51687
C        101.65059        0.77636       30.94267
C        100.89015        1.55302       31.83079
C        102.26201       -0.39884       31.40975
C        100.74335        1.15872       33.16530
C        102.12026       -0.78851       32.74361
C        101.36332       -0.01267       33.62675
O        101.24607       -0.39836       34.91344
H        101.38662        0.92042       26.37216
H        101.48051       -0.81540       28.67680
H        101.47441        2.23513       29.33225
H        102.97182        1.29878       29.42559
H        100.41789        2.46326       31.49384
H        102.86689       -1.00240       30.74436
H        100.15678        1.76823       33.84125
H        102.60879       -1.68966       33.09256
H        100.74237        0.11399       35.56164
N         98.95384        0.06555       29.40065
C         97.51103        0.29608       29.43450
C         97.14479        1.01299       30.72835
O         96.81625        0.34122       31.69686
C         96.73664       -1.03347       29.31356
C         96.90064       -1.66263       27.92439
C         96.07080       -2.90800       27.80526
O         96.30747       -3.95910       28.61289
O         95.17803       -2.97406       26.97494
H         99.37385       -0.43858       30.19425
H         97.16673        0.90147       28.57646
H         95.65226       -0.82015       29.45591
H         97.06248       -1.74424       30.10523
H         97.96521       -1.91318       27.73534
H         96.56736       -0.92941       27.15538
N         97.18907        2.36991       30.87004
C         97.54609        3.31573       29.81524
C         96.50182        3.32776       28.71694
O         95.32721        3.12175       28.99463
C         97.65269        4.74856       30.37584
C         98.77969        4.88774       31.41350
C         98.84901        6.26240       32.01461
O         99.76041        6.51564       32.96958
O         98.07428        7.14490       31.67773
H         96.94815        2.74525       31.80126
H         98.53984        3.04547       29.39491
H         96.67857        5.03092       30.83583
H         97.86627        5.45498       29.54202
H         99.75408        4.66027       30.93107
H         98.62009        4.17575       32.24893
N         96.86736        3.60051       27.43559
C         95.90886        3.64456       26.35358
H         95.14163        4.42224       26.55626
H         96.42464        3.89477       25.40226
H         95.41588        2.65553       26.24339
H         97.85794        3.79113       27.22081
Ca        99.71460        8.52786       33.98230
O         97.13895        6.93916       34.78219
H         96.28400        7.41490       34.93290
H         97.35621        6.53123       35.65765
O         97.66756       10.50223       34.69735
H         97.54144       11.40229       35.08895
H         97.31876        9.87951       35.38371
O        101.23087       10.98232       34.76113
H        101.11965       11.00128       35.74462
H        102.21068       11.00099       34.62070
O         99.88808        8.46826       37.04894
H         99.07015        7.95217       37.26091
H         99.68217        9.39115       37.34253

Ca 1.0



