%chk=apoCaM-CA-Ng.loop2.water4.frame710.chk
%nprocshared=20
%mem=10GB
%nosave
#b3lyp/svp scf=(tight,noincore,xqc) Test 
#IOP(5/87=12) Density=Current Pop=(MK,readradii) iop(6/33=2) iop(6/42=6)

apoCaM-CA-Ng.loop2.water4.frame710 

   -2  1 
C         89.92339        1.85362      -21.48468
C         91.03355        2.12429      -22.46013
O         90.77597        2.71324      -23.50006
H         89.13949        1.23979      -21.97660
H         90.29004        1.30052      -20.59381
H         89.47742        2.81183      -21.14652
N         92.30256        1.70703      -22.19447
C         93.41435        1.89934      -23.11748
C         93.69306        3.37529      -23.35390
O         93.93151        4.10696      -22.40349
C         94.68464        1.21039      -22.57694
C         95.83658        1.33190      -23.53950
O         96.96880        1.95496      -23.16131
O         95.74965        0.87073      -24.66682
H         92.47687        1.20357      -21.31039
H         93.15852        1.39900      -24.07866
H         94.47795        0.12974      -22.41694
H         94.96832        1.65908      -21.59986
N         93.75464        3.85153      -24.62850
C         94.13118        5.22359      -24.96301
C         93.03603        6.21515      -24.57849
O         91.92302        5.77658      -24.32283
C         94.37754        5.28378      -26.48365
H         93.60284        3.17928      -25.39692
H         95.07850        5.45761      -24.43171
H         94.70072        6.26569      -26.85990
H         95.17147        4.55632      -26.75629
H         93.44806        5.01358      -27.02925
N         93.21919        7.57298      -24.55904
C         94.50687        8.25391      -24.71762
C         95.41598        8.02841      -23.51968
O         94.97430        7.49848      -22.50987
C         94.31247        9.76684      -24.99445
C         93.57647       10.54193      -23.93017
O         93.38762       11.73765      -24.08605
O         93.10941        9.94249      -22.81870
H         92.37947        8.15067      -24.39938
H         95.02251        7.86760      -25.60669
H         93.74364        9.87391      -25.94329
H         95.30670       10.24065      -25.14582
N         96.72426        8.40478      -23.58389
C         97.65952        8.26852      -22.47946
C         98.78775        7.31443      -22.81996
O         98.75746        6.71221      -23.88456
H         97.08451        8.80995      -24.46143
H         97.14951        7.91155      -21.56430
H         98.07839        9.27466      -22.27088
N         99.85540        7.12575      -21.98834
C        100.03488        7.83345      -20.71945
C         98.99395        7.43974      -19.67603
O         98.29781        6.45107      -19.86164
C        101.46646        7.62225      -20.15711
C        101.77983        6.19346      -19.75298
N        102.09683        5.89314      -18.47154
O        101.76865        5.30243      -20.58863
H        100.60253        6.50049      -22.32574
H         99.93582        8.91896      -20.93474
H        101.59825        8.28659      -19.27666
H        102.20930        7.94476      -20.91925
H        102.12236        6.62287      -17.74512
H        102.32095        4.92296      -18.20337
N         98.86340        8.17286      -18.53027
C         97.97789        7.81012      -17.43021
C         96.98646        8.89181      -17.01831
O         96.34725        8.69833      -15.99393
H         99.46375        9.00186      -18.40342
H         98.62994        7.61747      -16.55181
H         97.41889        6.87368      -17.63806
N         96.80483       10.05107      -17.71953
C         95.93782       11.14749      -17.24920
C         94.47421       10.71295      -17.08495
O         94.11806        9.63876      -17.54490
C         96.10490       12.36354      -18.21755
C         95.28720       13.61469      -17.88182
O         97.46268       12.71970      -18.31950
H         97.34075       10.18164      -18.59091
H         96.30283       11.44259      -16.24091
H         95.77737       12.03841      -19.22263
H         97.81443       12.84719      -17.39977
H         95.51218       14.41328      -18.62038
H         94.20011       13.41244      -17.96303
H         95.53809       13.98680      -16.86663
N         93.57965       11.49474      -16.39493
C         92.17673       11.13515      -16.17951
C         91.27262       12.13216      -16.89317
O         91.34887       13.32473      -16.63532
C         91.82255       11.04257      -14.66472
C         90.32283       10.64429      -14.51009
C         92.74615       10.02682      -13.96774
C         89.84303       10.45017      -13.07269
H         93.90417       12.38089      -15.98273
H         91.98661       10.13013      -16.60141
H         91.98355       12.03398      -14.18459
H         90.12308        9.70358      -15.06617
H         89.69101       11.44445      -14.95219
H         92.54616        9.99494      -12.87717
H         92.60615        9.01073      -14.39424
H         93.80966       10.32337      -14.08151
H         88.75366       10.22919      -13.08316
H         90.34886        9.58500      -12.59782
H         90.01677       11.36739      -12.47325
N         90.37537       11.67138      -17.80856
C         89.48835       12.48227      -18.62314
C         88.01617       12.10534      -18.43845
O         87.20214       12.69854      -19.13442
C         89.88740       12.23432      -20.09022
C         91.28024       12.72380      -20.37347
O         92.29054       11.85761      -20.59441
O         91.50534       13.92318      -20.39842
H         90.34068       10.66832      -17.99133
H         89.59302       13.56404      -18.38545
H         89.19486       12.74123      -20.79661
H         89.82735       11.14217      -20.28883
N         87.57903       11.16498      -17.54039
C         86.16481       10.80362      -17.40188
C         85.98583        9.29064      -17.53448
O         85.45706        8.67606      -16.61933
C         85.64613       11.39536      -16.06767
C         84.15719       11.23834      -15.82505
C         83.21781       11.67498      -16.77904
C         83.69106       10.69281      -14.61393
C         81.84677       11.55835      -16.52987
C         82.31757       10.59244      -14.36367
C         81.39670       11.02227      -15.32185
H         88.25047       10.70465      -16.90845
H         85.57078       11.27154      -18.21178
H         85.84712       12.48787      -16.09609
H         86.22946       10.97233      -15.21916
H         83.53775       12.10764      -17.71672
H         84.38731       10.36363      -13.85277
H         81.13232       11.89223      -17.27148
H         81.96567       10.18701      -13.42351
H         80.33444       10.94508      -15.12682
N         86.38342        8.61084      -18.65535
C         86.28082        7.16723      -18.85824
C         86.88909        6.32203      -17.74671
O         86.25396        5.37157      -17.31506
C         87.06332        6.93754      -20.16021
C         86.75807        8.20219      -20.92312
C         86.92406        9.25768      -19.83624
H         85.20954        6.90048      -19.00727
H         88.15891        6.94937      -19.95769
H         86.81620        5.99047      -20.68570
H         87.36272        8.37846      -21.83600
H         85.68392        8.16137      -21.21745
H         87.99018        9.50522      -19.64865
H         86.35319       10.15859      -20.14455
N         88.12785        6.61208      -17.24781
C         88.81334        5.79157      -16.24409
C         88.02574        5.67147      -14.93918
O         88.37898        4.82323      -14.13064
C         90.24813        6.29165      -15.87866
C         91.31429        6.31111      -17.00233
C         91.29789        7.52382      -17.89107
O         92.20973        7.67404      -18.86704
O         90.53267        8.43730      -17.67416
H         88.57741        7.43833      -17.62962
H         88.90503        4.77066      -16.67643
H         90.63653        5.56297      -15.13314
H         90.21380        7.27892      -15.36663
H         91.25554        5.37349      -17.59219
H         92.31226        6.34677      -16.51159
N         86.97088        6.48403      -14.65160
C         86.17701        6.38712      -13.44531
H         85.11828        6.19934      -13.72373
H         86.51476        5.56724      -12.77865
H         86.23491        7.34667      -12.89053
H         86.71152        7.22443      -15.30546
Ca        92.23728        9.68288      -19.93563
O         89.98811        8.71809      -21.68125
H         89.95217        8.44851      -20.72923
H         89.78276        7.88757      -22.17896
O         92.21879        6.73144      -21.52671
H         91.50447        6.04629      -21.52948
H         93.01715        6.25546      -21.18844
O         95.36022       10.73117      -21.30821
H         96.03477       10.80698      -22.02743
H         94.84101       11.57192      -21.37446
O         95.07518        7.30558      -19.26027
H         94.83540        7.17547      -18.30841
H         95.64316        6.52541      -19.47704

Ca 1.0



