%chk=apoCaM-CA-Ng.loop4.water5.frame697.chk
%nprocshared=20
%mem=10GB
%nosave
#b3lyp/svp scf=(tight,noincore,xqc) Test 
#IOP(5/87=12) Density=Current Pop=(MK,readradii) iop(6/33=2) iop(6/42=6)

apoCaM-CA-Ng.loop4.water5.frame697 

   -3  1 
C        109.79143       96.38080       -1.16472
C        111.26570       96.48215       -0.90646
O        112.03787       96.45032       -1.85308
H        109.46958       97.22256       -1.81209
H        109.56721       95.41821       -1.66874
H        109.21071       96.42475       -0.21829
N        111.72621       96.61579        0.36782
C        113.13026       96.72842        0.74193
C        113.75498       97.95067        0.09215
O        114.79989       97.82179       -0.52263
C        113.92297       95.44417        0.37884
C        113.21778       94.18763        0.79057
O        112.90258       93.95525        2.07490
O        112.90471       93.36732       -0.05811
H        111.04003       96.65020        1.13776
H        113.16499       96.86068        1.84690
H        114.93023       95.48509        0.84853
H        114.06844       95.39468       -0.72313
N        113.14019       99.16677        0.13542
C        113.68554      100.33513       -0.56239
C        115.02527      100.75041        0.04745
O        115.19389      100.55718        1.24360
C        112.67384      101.52555       -0.61487
C        112.29915      102.06190        0.79277
C        111.43094      101.11526       -1.43267
C        111.41784      103.31308        0.75180
H        112.23643       99.23326        0.62405
H        113.85199      100.03288       -1.61541
H        113.15866      102.35615       -1.16918
H        113.22873      102.34305        1.33014
H        111.77595      101.28512        1.38747
H        110.75150      101.97511       -1.59615
H        111.73795      100.76101       -2.44029
H        110.86302      100.30409       -0.93183
H        110.42977      103.10133        0.29583
H        111.23614      103.66943        1.78747
H        111.92242      104.12214        0.18211
N        116.03620      101.34425       -0.66314
C        116.00379      101.64833       -2.09645
C        116.02300      100.39600       -2.96891
O        115.76396      100.50921       -4.15916
C        117.20392      102.53779       -2.48801
C        117.23520      103.81687       -1.69585
O        116.30892      104.60881       -1.76516
O        118.28884      104.09263       -0.90302
H        116.87610      101.62021       -0.12948
H        115.07622      102.21847       -2.30741
H        117.15187      102.79640       -3.56788
H        118.14822      101.97652       -2.30936
N        116.32664       99.17216       -2.45092
C        116.28482       97.93359       -3.20946
C        117.29893       97.92546       -4.31831
O        118.47310       98.12674       -4.04194
H        116.59470       99.09914       -1.46104
H        115.25492       97.76677       -3.59538
H        116.52907       97.08969       -2.52897
N        116.91480       97.66934       -5.60083
C        117.84651       97.65282       -6.72300
C        117.50993       98.69878       -7.77454
O        118.29235       98.83287       -8.70458
C        117.95597       96.23367       -7.33867
C        116.69041       95.62458       -7.89789
O        115.50066       96.24802       -7.81832
O        116.74559       94.52426       -8.42328
H        115.92000       97.47099       -5.77849
H        118.86785       97.90998       -6.36603
H        118.34169       95.54209       -6.55890
H        118.70936       96.26830       -8.15669
N        116.39856       99.49442       -7.70917
C        116.10807      100.49847       -8.72329
C        115.81603       99.91465      -10.09830
O        115.69328      100.69127      -11.03427
H        115.74799       99.42181       -6.91498
H        116.98137      101.18375       -8.79055
H        115.22758      101.10268       -8.41380
N        115.67028       98.56972      -10.30038
C        115.44801       97.93608      -11.59569
C        114.12672       98.30634      -12.25727
O        113.91489       97.88453      -13.38504
C        116.67709       98.09797      -12.51883
C        117.88623       97.34926      -11.91987
C        119.08395       97.27706      -12.83048
N        120.16574       96.55890      -12.44830
O        119.08215       97.83825      -13.91636
H        115.72764       97.93596       -9.49937
H        115.34911       96.83881      -11.43291
H        116.91536       99.16638      -12.70831
H        116.44700       97.61448      -13.49280
H        117.58098       96.30013      -11.71324
H        118.19107       97.81779      -10.96467
H        120.17472       96.06614      -11.54232
H        120.98847       96.47837      -13.06346
N        113.13352       98.94504      -11.57231
C        111.77622       99.09950      -12.09853
C        110.80156       98.19288      -11.34427
O        109.61710       98.21874      -11.66025
C        111.33807      100.58673      -12.10120
C        111.27717      101.20236      -10.69536
C        112.25966      101.41459      -13.00875
H        113.29718       99.23593      -10.59966
H        111.72398       98.75619      -13.15526
H        110.31444      100.63783      -12.53620
H        112.27844      101.22757      -10.21855
H        110.89988      102.24511      -10.75917
H        110.58163      100.62655      -10.04989
H        113.30189      101.41383      -12.62470
H        112.26052      100.99464      -14.03800
H        111.90202      102.46415      -13.06681
N        111.23401       97.30149      -10.40337
C        110.36665       96.31906       -9.75686
C        111.17499       95.14011       -9.21157
O        112.39430       95.12536       -9.34507
C        109.48314       96.99429       -8.67934
C        110.28291       97.59428       -7.54582
N        110.21382       98.91888       -7.27568
O        110.98488       96.87455       -6.85114
H        112.24141       97.25577      -10.20186
H        109.70120       95.87328      -10.53037
H        108.77467       96.25416       -8.25166
H        108.86707       97.78116       -9.16440
H        109.62073       99.54541       -7.83856
H        110.75258       99.32034       -6.49379
N        110.55367       94.08114       -8.62633
C        111.27649       92.90292       -8.15221
C        110.30560       91.85990       -7.64243
O        109.41752       92.21093       -6.87395
C        112.27960       93.22826       -7.01658
C        113.09716       91.99106       -6.71679
C        112.97628       91.33012       -5.48679
C        113.96335       91.46765       -7.69492
C        113.69295       90.15230       -5.24763
C        114.67927       90.29420       -7.45282
C        114.54177       89.62775       -6.23290
O        115.22483       88.48507       -6.02096
H        109.52303       94.09966       -8.55671
H        111.83829       92.48470       -9.01592
H        111.71248       93.57312       -6.12326
H        112.98756       94.03534       -7.28941
H        112.31287       91.71721       -4.72602
H        114.07697       91.96257       -8.65144
H        113.58503       89.64120       -4.30205
H        115.33388       89.89841       -8.21922
H        115.14375       87.98232       -5.19812
N        110.45256       90.54515       -7.97723
C        109.52148       89.52109       -7.53286
C        110.20346       88.53251       -6.58514
O        110.86463       87.62887       -7.07882
C        108.93062       88.78571       -8.75412
C        108.20240       89.74231       -9.70931
C        107.65872       89.00302      -10.89696
O        106.33469       88.99776      -11.14054
O        108.41425       88.41494      -11.65501
H        111.25151       90.25914       -8.56498
H        108.67008       89.99349       -7.02762
H        108.21562       88.00874       -8.40300
H        109.75373       88.28175       -9.30954
H        108.90025       90.52533      -10.07701
H        107.36939       90.23797       -9.16566
N        110.12810       88.60282       -5.21617
C        109.52622       89.70042       -4.45474
C        108.03181       89.82110       -4.67997
O        107.41075       88.90780       -5.20828
C        109.76643       89.53986       -2.92981
C        111.25044       89.52598       -2.52782
C        111.40783       89.35749       -1.04335
O        110.98750       88.35371       -0.48973
O        112.03365       90.30379       -0.31817
H        110.60572       87.85498       -4.69089
H        110.01161       90.64058       -4.79443
H        109.28401       88.59629       -2.59042
H        109.28544       90.38748       -2.39346
H        111.72016       90.48285       -2.83311
H        111.78738       88.69022       -3.01881
N        107.39732       90.97408       -4.33195
C        105.98900       91.18579       -4.57607
H        105.38939       90.44263       -4.01130
H        105.70008       92.20762       -4.24924
H        105.77692       91.09183       -5.66302
H        107.93984       91.74426       -3.91100
Ca       111.71951       92.07349        2.44749
O        114.64498       91.06029        2.06497
H        114.94984       91.02021        1.12381
H        115.12167       91.83920        2.44785
O        111.98577       92.49270        5.31685
H        111.82294       91.52454        5.44664
H        112.95696       92.55853        5.13441
O        109.10778       90.90682        3.31167
H        108.43362       90.52307        2.69675
H        108.90212       91.87535        3.33339
O        109.74842       92.51065       -0.15908
H        109.17119       93.23602        0.18863
H        109.16143       91.71345       -0.17822
O        111.94018       89.16739        2.91060
H        112.51679       88.75736        3.60289
H        111.55022       88.40064        2.42099

Ca 1.0



