%chk=apoCaM-CA-Ng.loop1.water2.frame787.chk
%nprocshared=20
%mem=10GB
%nosave
#b3lyp/svp scf=(tight,noincore,xqc) Test 
#IOP(5/87=12) Density=Current Pop=(MK,readradii) iop(6/33=2) iop(6/42=6)

apoCaM-CA-Ng.loop1.water2.frame787 

   0  1 
C        113.61355       18.52146       12.27233
C        113.53467       17.75115       13.55704
O        114.50217       17.73477       14.30441
H        114.60820       19.00351       12.16094
H        113.45039       17.83548       11.41474
H        112.83141       19.30952       12.26224
N        112.39264       17.08062       13.87344
C        112.22140       16.30825       15.10190
C        111.98685       14.80290       14.81698
O        111.72693       14.54495       13.47067
C        111.08947       16.89105       15.97729
C        109.70456       16.92989       15.37759
O        109.47964       16.53424       14.24625
O        108.69050       17.42333       16.11320
H        111.61144       17.12315       13.20232
H        113.13336       16.38978       15.73401
H        111.36493       17.93194       16.25173
H        111.03621       16.29447       16.91443
N        113.08253       13.97150       15.32697
C        112.97637       12.52678       15.02951
C        111.71960       11.89121       15.61402
O        111.44316       12.11385       16.78567
C        114.19421       11.81715       15.66799
C        114.33069       10.34758       15.22525
C        115.38595        9.61858       16.07105
C        115.62250        8.16753       15.61862
N        116.35153        8.10058       14.35036
H        113.12339       14.10729       16.36494
H        113.03445       12.36971       13.92952
H        114.09696       11.87724       16.77579
H        115.13179       12.34261       15.38225
H        114.58900       10.34101       14.14592
H        113.37428        9.80007       15.36074
H        115.00572        9.59454       17.11671
H        116.35328       10.16516       16.06809
H        114.65419        7.62383       15.53934
H        116.23431        7.65819       16.39555
H        116.51627        7.09784       14.10494
H        115.81135        8.54690       13.57702
H        117.27978        8.57308       14.45243
N        111.01801       10.95065       14.90839
C        110.00575       10.11505       15.55959
C        109.68734        8.84109       14.77907
O        109.90634        8.81869       13.57631
C        108.70839       10.91064       15.85002
C        107.96157       11.33591       14.60276
O        107.79774       12.63583       14.30616
O        107.47309       10.50050       13.86041
H        111.33794       10.72259       13.95633
H        110.48371        9.78593       16.50344
H        108.95539       11.80591       16.45627
H        108.01321       10.28869       16.45364
N        109.12402        7.73397       15.35773
C        108.87291        7.53183       16.77443
C        109.52287        6.24318       17.23681
O        110.72454        6.08064       17.07317
H        108.86779        6.94844       14.75087
H        107.77631        7.47919       16.93802
H        109.25214        8.35577       17.40060
N        108.77317        5.29101       17.86103
C        109.31240        4.03737       18.38028
C        109.82570        3.12495       17.27692
O        110.96185        2.68392       17.37285
C        108.29148        3.30324       19.28560
C        107.03381        2.82669       18.60689
O        106.25430        3.61932       18.10419
O        106.74006        1.51272       18.59294
H        107.77972        5.50360       18.02583
H        110.16091        4.27748       19.06191
H        108.00774        3.97758       20.12305
H        108.80310        2.42117       19.73149
N        109.05446        2.81031       16.19476
C        109.49484        1.89521       15.14826
C        109.86852        2.60249       13.86417
O        110.26915        1.91533       12.93195
H        108.12906        3.25101       16.08888
H        108.69347        1.14676       14.96668
H        110.39778        1.33428       15.46861
N        109.81244        3.95782       13.73885
C        110.27474        4.68641       12.56465
C        109.12597        5.43605       11.93824
O        108.36616        6.08624       12.64477
C        111.39871        5.66912       12.96109
C        112.61681        4.93286       13.51899
O        111.81155        6.40175       11.83326
H        109.45897        4.52492       14.52494
H        110.70182        4.00015       11.79822
H        111.03480        6.35590       13.75973
H        111.36319        7.28662       11.87116
H        113.40552        5.66748       13.78704
H        112.34863        4.35757       14.42963
H        113.02557        4.23554       12.75596
N        108.96436        5.44031       10.59149
C        107.88358        6.16854        9.94835
C        106.58319        5.49032       10.33201
O        105.73338        6.14513       10.91492
C        108.13304        6.31003        8.41990
C        109.50195        7.00401        8.11880
C        106.98940        7.08287        7.73989
C        109.69453        8.39598        8.74332
H        109.64729        4.92735       10.01143
H        107.85281        7.20677       10.34723
H        108.16815        5.29783        7.95993
H        109.62611        7.09326        7.01822
H        110.33710        6.36884        8.47881
H        107.18728        7.17610        6.65032
H        106.02726        6.54462        7.86419
H        106.87644        8.10007        8.16916
H        108.92492        9.11131        8.39089
H        109.67622        8.34988        9.85207
H        110.69029        8.79418        8.45550
N        106.39576        4.15657       10.09937
C        105.25326        3.42131       10.63904
C        105.03917        2.11941        9.88189
O        105.93778        1.29520        9.81224
C        105.40283        3.16093       12.17066
C        106.63656        2.32586       12.54652
O        105.45945        4.38335       12.85797
H        107.11914        3.63967        9.57792
H        104.33840        4.03639       10.49515
H        104.49011        2.60888       12.49882
H        105.19612        4.20459       13.79853
H        106.68367        2.20712       13.64975
H        106.59056        1.30524       12.11997
H        107.56353        2.82694       12.20164
N        103.83996        1.88662        9.27752
C        103.51787        0.66169        8.55425
C        102.18866        0.85921        7.83904
O        102.16545        0.81705        6.61646
C        103.51454       -0.57735        9.50711
C        103.17072       -1.87414        8.76339
O        102.61535       -0.38535       10.56907
H        103.12411        2.62753        9.32465
H        104.29524        0.49939        7.77341
H        104.53653       -0.69579        9.92872
H        102.80234       -1.08686       11.24665
H        102.14491       -1.82891        8.34074
H        103.89882       -2.05164        7.94470
H        103.21839       -2.73415        9.46590
N        101.04575        1.08995        8.54384
C         99.74280        1.30665        7.93770
C         99.12892        2.56666        8.51905
O         99.03331        2.66791        9.73597
C         98.86468        0.07407        8.21311
C         97.49072        0.18300        7.52648
C         96.61506       -1.06597        7.71304
C         97.18788       -2.31512        7.01928
N         96.27898       -3.45182        7.15858
H        101.08529        1.09120        9.57246
H         99.82764        1.39559        6.83157
H         98.73288       -0.07558        9.30751
H         99.41046       -0.80107        7.80420
H         97.62392        0.36795        6.43769
H         96.94602        1.04991        7.95893
H         95.62249       -0.84740        7.26216
H         96.46880       -1.26252        8.79731
H         98.16864       -2.59188        7.45932
H         97.33639       -2.09947        5.93743
H         95.35424       -3.22942        6.72350
H         96.69056       -4.28031        6.67094
H         96.14811       -3.68412        8.16986
N         98.63834        3.54936        7.71192
C         97.98506        4.73415        8.25586
C         98.97972        5.63956        8.97979
O         98.78680        5.83778       10.17077
C         97.15732        5.47503        7.17879
C         96.37462        6.65840        7.77024
C         95.48841        7.28987        6.73653
O         95.96919        7.77854        5.72641
O         94.15534        7.32666        6.92471
H         98.66195        3.40941        6.69003
H         97.22558        4.38315        8.99361
H         96.42805        4.74725        6.75753
H         97.78214        5.84029        6.34276
H         97.07839        7.42704        8.15607
H         95.74524        6.30090        8.61439
N        100.04838        6.25641        8.38994
C        100.46477        6.12689        7.00841
H        101.51899        5.78283        6.97766
H         99.87445        5.39886        6.43280
H        100.39954        7.11836        6.51171
H        100.62586        6.87978        8.97585
Ca       109.65175       13.72324       13.71941
O        110.29447       11.78054       11.39924
H        111.14462       11.30963       11.58721
H        110.55356       12.53001       10.80631
O        107.12436       12.96495       10.76529
H        106.90497       12.48056       11.60035
H        106.53296       12.56012       10.08197

Ca 1.0



