%chk=apoCaM-CA-Ng.loop1.water4.frame314.chk
%nprocshared=20
%mem=10GB
%nosave
#b3lyp/svp scf=(tight,noincore,xqc) Test 
#IOP(5/87=12) Density=Current Pop=(MK,readradii) iop(6/33=2) iop(6/42=6)

apoCaM-CA-Ng.loop1.water4.frame314 

   0  1 
C         43.19625       92.52572       45.22659
C         44.04760       93.76192       45.19230
O         45.21580       93.68737       45.54598
H         42.16867       92.72929       44.85655
H         43.64958       91.75296       44.56887
H         43.13401       92.13485       46.26173
N         43.53745       94.93450       44.72633
C         44.35757       96.12362       44.53632
C         44.73747       96.82591       45.84142
O         45.47888       97.78023       45.74661
C         43.65276       97.13201       43.59422
C         43.40539       96.57653       42.21130
O         42.59176       95.52022       42.02480
O         43.92760       97.10158       41.24095
H         42.55774       94.94552       44.40580
H         45.29741       95.82071       44.02082
H         44.30790       98.02101       43.47574
H         42.68924       97.46482       44.03764
N         44.26848       96.48814       47.07668
C         44.59782       97.29100       48.26444
C         45.90839       96.89873       48.92693
O         46.07442       95.71255       49.17551
C         43.50730       97.16298       49.34854
C         42.27783       98.01007       49.01472
C         41.30664       98.05242       50.19802
C         40.23065       99.12035       49.97258
N         39.33689       99.21166       51.12504
H         43.57491       95.73064       47.15934
H         44.63478       98.34981       47.98043
H         43.91381       97.59045       50.29296
H         43.25339       96.09836       49.54906
H         41.77397       97.64869       48.09257
H         42.63261       99.04906       48.84617
H         41.86560       98.33172       51.11931
H         40.85056       97.04996       50.34912
H         39.64468       98.88355       49.05799
H         40.72662      100.10763       49.82696
H         38.64275       99.97515       50.95757
H         38.82936       98.30739       51.25677
H         39.88422       99.43972       51.98746
N         46.82490       97.80281       49.42341
C         46.88571       99.27043       49.26849
C         45.57888       99.99333       49.59977
O         44.99310      100.59609       48.71210
C         47.43158       99.64198       47.87569
C         48.79560       99.06327       47.62073
O         49.41125       98.31612       48.55837
O         49.32364       99.22070       46.53225
H         47.58413       97.39764       49.99405
H         47.65422       99.66724       49.96858
H         47.50331      100.74641       47.77625
H         46.74456       99.26407       47.10559
N         45.04770      100.02311       50.85059
C         45.75418       99.51860       52.00998
C         44.94913       99.62462       53.29530
O         43.75762       99.89752       53.24927
H         44.13861      100.49580       50.97096
H         46.68335      100.11755       52.10701
H         46.01903       98.44938       51.86804
N         45.52052       99.37816       54.50845
C         46.95654       99.17769       54.67395
C         47.68944      100.51146       54.59340
O         47.05667      101.55766       54.64642
C         47.26697       98.44892       55.99986
C         46.82897       99.20715       57.22641
O         45.90619       98.67508       58.05028
O         47.31618      100.29443       57.49199
H         44.91461       99.38602       55.34352
H         47.31608       98.50418       53.86589
H         48.35741       98.24849       56.07437
H         46.74528       97.46704       55.98031
N         49.04364      100.53730       54.47330
C         49.83343      101.75694       54.49591
C         49.43405      102.75899       53.43773
O         49.16808      103.90108       53.78483
H         49.54960       99.64334       54.38268
H         50.90043      101.48875       54.33566
H         49.75100      102.22815       55.49966
N         49.41230      102.41610       52.12130
C         49.16311      103.38658       51.04950
C         47.76589      103.99315       51.14715
O         46.93308      103.46784       51.87184
C         49.36177      102.71062       49.66481
C         50.79036      102.19201       49.47750
O         49.10004      103.61694       48.63089
H         49.62591      101.43592       51.88523
H         49.90162      104.21100       51.16177
H         48.64246      101.86143       49.60767
H         48.92846      103.07628       47.81665
H         51.06809      101.45821       50.25445
H         50.87504      101.68974       48.49037
H         51.50788      103.03853       49.51200
N         47.45691      105.12475       50.43507
C         46.12452      105.73406       50.43104
C         45.49737      105.64696       49.02387
O         44.32810      105.98597       48.88241
C         46.14499      107.22965       50.93453
C         47.43412      107.71215       51.66059
C         44.89669      107.53527       51.78684
C         47.74802      107.06202       53.00642
H         48.19533      105.56762       49.87114
H         45.47526      105.14246       51.11142
H         46.11105      107.88464       50.03437
H         47.34691      108.80782       51.83771
H         48.30358      107.57530       50.98351
H         43.96607      107.31706       51.22528
H         44.89431      106.91219       52.70811
H         44.88003      108.60351       52.09261
H         48.69777      107.48950       53.39547
H         46.95133      107.26983       53.74771
H         47.87944      105.97308       52.90541
N         46.22053      105.22819       47.93826
C         45.73054      105.10567       46.56831
C         45.95539      103.67904       46.07850
O         47.08683      103.21156       46.08433
C         46.43310      106.13499       45.63373
C         47.97500      106.11262       45.65992
O         45.97981      107.43553       45.91395
H         47.20588      104.98340       48.06105
H         44.64099      105.32780       46.51862
H         46.11380      105.90305       44.59352
H         46.25068      107.65978       46.84155
H         48.35925      106.39700       46.66236
H         48.38455      105.12156       45.38626
H         48.36866      106.84772       44.92719
N         44.91369      102.90991       45.66131
C         45.07933      101.50945       45.27522
C         45.95719      101.30910       44.03089
O         45.99113      102.17062       43.16516
C         43.71248      100.79677       45.11299
C         42.87105      101.32460       43.94752
O         42.96590      100.92567       46.29570
H         43.96588      103.31572       45.69310
H         45.57976      101.00757       46.12725
H         43.89352       99.72109       44.90675
H         43.21977      100.16692       46.88058
H         41.92020      100.75224       43.89322
H         42.62139      102.39677       44.08326
H         43.40654      101.19378       42.98487
N         46.67545      100.14968       43.89749
C         47.49431       99.76846       42.73197
C         48.35534       98.48244       42.93119
O         49.22148       98.25905       42.09586
C         46.57487       99.64216       41.47635
C         47.25947       99.09029       40.21063
C         46.34087       99.13468       38.98256
C         47.00457       98.42876       37.78836
N         46.18249       98.53631       36.58390
H         46.62226       99.53524       44.70158
H         48.23199      100.58380       42.56459
H         46.15397      100.64198       41.24340
H         45.72946       98.96434       41.71507
H         47.52922       98.02769       40.39184
H         48.17764       99.67595       39.98793
H         46.13290      100.19694       38.72866
H         45.37832       98.62426       39.20482
H         47.15109       97.35304       38.03791
H         48.00209       98.87793       37.58659
H         45.23250       98.13320       36.75260
H         46.09737       99.53975       36.30150
H         46.64272       98.00674       35.80815
N         48.23337       97.61327       43.98083
C         49.06741       96.42457       44.16514
C         48.86235       95.41925       43.04963
O         47.74256       94.97519       42.83336
C         48.74845       95.76863       45.53256
C         49.51384       94.46203       45.83337
C         51.01541       94.53997       45.66806
O         51.56218       93.80329       44.86332
O         51.77697       95.38720       46.39014
H         47.54135       97.77630       44.70439
H         50.13274       96.74102       44.20010
H         47.66077       95.53725       45.59504
H         48.96304       96.51200       46.32120
H         49.12885       93.67274       45.15071
H         49.27290       94.14593       46.87104
N         49.93243       94.97067       42.33747
C         49.81647       93.94256       41.32774
H         50.81976       93.71261       40.90874
H         49.40854       93.01357       41.78209
H         49.15111       94.28238       40.50785
H         50.87202       95.34324       42.54229
Ca        50.91899       96.82291       47.87578
O         54.34615       96.80830       48.22566
H         54.16980       95.86608       47.97814
H         54.86178       97.17305       47.46326
O         52.44804       99.23779       49.62401
H         52.84972       99.99478       49.12820
H         52.47050       99.52376       50.57183
O         53.38786       96.88092       51.40654
H         54.28219       97.08630       51.03453
H         53.33636       97.41860       52.23642
O         52.87626       98.56940       46.06390
H         53.10627       99.23730       46.75725
H         51.88727       98.54687       46.06126

Ca 1.0



