%chk=apoCaM-CA-Ng.loop1.water3.frame758.chk
%nprocshared=20
%mem=10GB
%nosave
#b3lyp/svp scf=(tight,noincore,xqc) Test 
#IOP(5/87=12) Density=Current Pop=(MK,readradii) iop(6/33=2) iop(6/42=6)

apoCaM-CA-Ng.loop1.water3.frame758 

   0  1 
C         53.94962       37.13959       15.54532
C         54.24722       38.56582       15.17497
O         53.51045       39.14547       14.39050
H         53.03557       36.77592       15.02821
H         54.80260       36.48816       15.26179
H         53.78635       37.06453       16.64165
N         55.31952       39.19918       15.72744
C         55.67411       40.59638       15.46571
C         57.10652       40.74018       14.87556
O         57.79002       39.52361       14.95591
C         55.53224       41.41305       16.76101
C         56.39757       40.92032       17.88963
O         57.61294       40.94137       17.79452
O         55.82904       40.47045       19.02438
H         55.90133       38.66606       16.39324
H         54.95549       41.05201       14.74803
H         54.46906       41.35783       17.08240
H         55.77183       42.47847       16.55547
N         57.06577       41.25669       13.49718
C         58.31436       41.12617       12.71888
C         59.39871       42.10854       13.14267
O         59.19480       43.30790       13.00897
C         57.97150       41.33902       11.23091
C         59.15678       41.04140       10.29986
C         58.72347       41.12915        8.83196
C         59.85598       40.69719        7.89273
N         59.40092       40.68264        6.50286
H         56.74022       42.25202       13.50878
H         58.68595       40.08428       12.80946
H         57.60606       42.37771       11.06162
H         57.14575       40.64024       10.97341
H         59.50932       40.00744       10.50532
H         59.99459       41.74858       10.48967
H         58.40438       42.16753        8.59001
H         57.86047       40.44613        8.67501
H         60.19020       39.67224        8.16956
H         60.72061       41.38950        7.99860
H         60.18518       40.36562        5.88860
H         58.60232       40.01470        6.39608
H         59.10038       41.64018        6.20966
N         60.60000       41.65756       13.61596
C         61.74640       42.53179       13.87340
C         62.98401       41.98968       13.15023
O         62.94225       40.84295       12.72449
C         61.95312       42.66780       15.39822
C         62.50133       41.43804       16.07852
O         63.68833       41.17254       15.97936
O         61.72054       40.65328       16.84469
H         60.71474       40.64754       13.77554
H         61.50887       43.54101       13.47699
H         60.96913       42.93373       15.84357
H         62.64383       43.50434       15.63614
N         64.13599       42.69311       12.94766
C         64.36535       44.09713       13.24706
C         64.70726       44.84285       11.96914
O         64.67075       44.24957       10.89917
H         64.91522       42.19561       12.48706
H         65.22427       44.17084       13.94777
H         63.48798       44.57912       13.71753
N         65.03070       46.16795       11.99833
C         65.35515       46.91432       10.77951
C         66.69439       46.52977       10.15525
O         66.94402       46.96699        9.03998
C         65.32120       48.43952       11.00088
C         66.41036       48.94352       11.91361
O         66.46102       48.56179       13.20328
O         67.24964       49.72028       11.48687
H         64.97681       46.65516       12.90321
H         64.55194       46.68822       10.04143
H         64.32998       48.73421       11.40379
H         65.43501       48.92974       10.00691
N         67.59926       45.72760       10.78851
C         68.84074       45.29693       10.15948
C         68.76954       43.83982        9.76824
O         69.71246       43.35414        9.15968
H         67.39114       45.35778       11.72768
H         69.69631       45.48464       10.84448
H         69.03438       45.86325        9.22441
N         67.67242       43.08495       10.06329
C         67.49538       41.69943        9.67930
C         67.48775       40.85567       10.93998
O         67.50645       41.40347       12.03644
C         66.16585       41.56610        8.88105
C         66.10805       42.50887        7.66656
O         65.93628       40.24302        8.46963
H         66.90499       43.48868       10.60642
H         68.34855       41.36418        9.04917
H         65.32737       41.85856        9.55170
H         66.63530       40.01153        7.80367
H         66.20364       43.56978        7.98267
H         66.92177       42.27515        6.94833
H         65.13018       42.39741        7.15115
N         67.52408       39.50071       10.86182
C         67.62057       38.64835       12.04171
C         68.87346       39.00616       12.82679
O         68.79376       39.12580       14.04112
C         67.60724       37.14063       11.64926
C         66.32639       36.73570       10.86017
C         67.77000       36.24144       12.89139
C         65.00028       37.01670       11.57864
H         67.54655       39.06921        9.92759
H         66.74540       38.82810       12.70312
H         68.47861       36.93663       10.98697
H         66.38085       35.64963       10.62966
H         66.29317       37.26264        9.88504
H         66.95891       36.41711       13.62751
H         67.76599       35.17154       12.59465
H         68.73996       36.43601       13.39501
H         64.15938       36.66598       10.94467
H         64.94318       36.48542       12.54954
H         64.85747       38.10485       11.74260
N         70.04408       39.27212       12.18131
C         71.27015       39.65181       12.87476
C         72.44068       38.83843       12.35110
O         72.26593       38.02412       11.45511
C         71.50029       41.18449       12.77660
C         71.65034       41.69684       11.34519
O         70.42592       41.85858       13.38069
H         70.05366       39.25803       11.15007
H         71.18434       39.42259       13.95973
H         72.43935       41.46051       13.30964
H         70.58231       41.83169       14.36182
H         72.51754       41.21804       10.84557
H         70.72927       41.49772       10.76142
H         71.81953       42.79557       11.36535
N         73.67695       39.01052       12.89257
C         74.84777       38.24655       12.49048
C         75.34743       37.48090       13.70491
O         75.39618       36.25929       13.66556
C         75.90240       39.19892       11.85522
C         77.12745       38.44730       11.33217
O         76.33250       40.18601       12.75788
H         73.79146       39.70738       13.64177
H         74.58124       37.50725       11.70208
H         75.43714       39.68658       10.96437
H         75.72568       40.96537       12.65792
H         76.82382       37.69736       10.57141
H         77.82805       39.16533       10.85277
H         77.66079       37.93514       12.16023
N         75.72546       38.15309       14.82589
C         76.23849       37.54144       16.04114
C         75.44322       38.07117       17.22661
O         75.30096       39.28225       17.33942
C         77.72662       37.91124       16.11793
C         78.45912       37.32511       17.33259
C         79.98517       37.50308       17.21789
C         80.43791       38.97137       17.13352
N         81.89155       39.05961       17.00091
H         75.69408       39.18211       14.81483
H         76.17760       36.43058       15.99999
H         77.82845       39.01668       16.10900
H         78.20493       37.50526       15.19756
H         78.26024       36.23192       17.38168
H         78.07914       37.79160       18.26710
H         80.33789       36.96388       16.31094
H         80.45998       37.02946       18.10429
H         80.11193       39.51362       18.04803
H         79.98462       39.46641       16.24902
H         82.16950       40.06615       16.94594
H         82.35897       38.62009       17.82618
H         82.19908       38.57974       16.12316
N         74.91268       37.23523       18.16758
C         74.12175       37.74391       19.28786
C         72.73489       38.19283       18.83265
O         72.46334       39.37676       18.97407
C         74.05133       36.75560       20.47819
C         75.40323       36.66109       21.20900
C         75.37510       35.72672       22.39059
O         74.37222       35.08959       22.67477
O         76.47769       35.59575       23.15198
H         75.11820       36.22618       18.10845
H         74.63450       38.64411       19.70046
H         73.72402       35.74656       20.16551
H         73.31301       37.14193       21.21605
H         75.66990       37.67328       21.58705
H         76.19573       36.32423       20.50880
N         71.77010       37.37372       18.31365
C         71.88679       35.95494       18.04908
H         72.89511       35.55368       18.22117
H         71.16067       35.40406       18.68512
H         71.64067       35.76265       16.98480
H         70.85499       37.79573       18.08982
Ca        59.72061       40.00160       16.04790
O         62.20678       37.47922       16.74048
H         62.39363       38.24837       16.14625
H         62.72485       37.66989       17.56241
O         60.77992       37.92456       13.83800
H         61.50384       38.36382       13.32474
H         59.97616       38.02332       13.26878
O         59.95701       39.06392       19.18335
H         59.32464       39.67695       19.63573
H         60.79368       39.14066       19.70723

Ca 1.0



