%chk=apoCaM-CA-Ng.loop2.water4.frame87.chk
%nprocshared=20
%mem=10GB
%nosave
#b3lyp/svp scf=(tight,noincore,xqc) Test 
#IOP(5/87=12) Density=Current Pop=(MK,readradii) iop(6/33=2) iop(6/42=6)

apoCaM-CA-Ng.loop2.water4.frame87 

   -2  1 
C         53.39595       46.23832      101.44841
C         54.32352       45.56870      102.42079
O         55.04032       46.27005      103.12040
H         52.69146       46.89546      102.00088
H         53.98357       46.85534      100.73647
H         52.80601       45.49600      100.87099
N         54.35744       44.20834      102.52516
C         55.21725       43.49391      103.46389
C         56.20811       42.57198      102.74964
O         57.02361       41.96922      103.43184
C         54.31475       42.71204      104.43904
C         55.08427       42.05527      105.55090
O         55.04105       40.84425      105.69661
O         55.81722       42.80281      106.39841
H         53.72537       43.65160      101.92884
H         55.81837       44.22114      104.05348
H         53.73605       41.95014      103.87039
H         53.59252       43.41689      104.90512
N         56.21875       42.42372      101.38949
C         57.17412       41.60504      100.64815
C         58.58053       42.14776      100.81272
O         59.49320       41.41013      101.16084
C         57.05029       40.11714      101.01716
H         55.53158       42.93161      100.81660
H         56.92669       41.69627       99.56702
H         56.00951       39.77119      100.84635
H         57.73073       39.50954      100.38320
H         57.31574       39.93264      102.07842
N         58.80956       43.47184      100.57593
C         60.10764       44.13165      100.66092
C         60.74494       44.07350      102.05471
O         61.87553       44.52554      102.18294
C         61.09571       43.56394       99.61806
C         60.53577       43.36133       98.22902
O         60.68770       42.27325       97.69650
O         59.89609       44.32568       97.53190
H         58.01028       44.06180      100.29774
H         59.95892       45.20276      100.40404
H         61.48935       42.58311       99.96739
H         61.96184       44.25855       99.55282
N         60.11609       43.51896      103.13793
C         60.78006       43.31322      104.41653
C         61.21549       44.58353      105.10994
O         61.97299       44.47352      106.06354
H         59.15661       43.17044      103.05807
H         61.68122       42.69010      104.22437
H         60.12153       42.74452      105.10850
N         60.80091       45.81578      104.69595
C         61.32367       47.05836      105.25617
C         60.24256       47.90805      105.89441
O         59.06398       47.61138      105.75578
C         62.04591       47.86791      104.14995
C         61.13122       48.30403      103.01857
N         60.89053       49.61441      102.78756
O         60.61028       47.46925      102.29521
H         60.10559       45.87407      103.94238
H         62.06717       46.83030      106.05047
H         62.87376       47.26114      103.72378
H         62.50615       48.76516      104.61510
H         61.31211       50.34583      103.37671
H         60.26917       49.89588      102.01492
N         60.60693       49.01204      106.60996
C         59.66767       49.97881      107.15660
C         59.98402       51.36091      106.62788
O         60.96727       51.52099      105.91607
H         61.61191       49.19311      106.75808
H         59.74373       49.99250      108.26429
H         58.62431       49.71718      106.87851
N         59.15912       52.41208      106.90541
C         59.37946       53.75316      106.36100
C         58.34233       54.01845      105.28082
O         57.65951       55.03190      105.28315
C         59.43861       54.81475      107.49341
C         58.15634       54.91911      108.34123
O         60.54458       54.57117      108.32762
H         58.30810       52.23206      107.45830
H         60.35541       53.79596      105.82960
H         59.60189       55.80535      107.01634
H         60.37908       53.72159      108.81490
H         57.95133       53.97314      108.88327
H         58.27792       55.72404      109.09621
H         57.27410       55.16739      107.71875
N         58.18704       53.07718      104.31158
C         57.17079       53.08146      103.26564
C         57.75850       52.46260      101.99524
O         58.93972       52.14346      101.98546
C         55.88112       52.35520      103.78982
C         56.12942       51.02493      104.55556
C         55.09489       53.29586      104.72181
C         56.78567       49.91743      103.74113
H         58.75409       52.22107      104.39580
H         56.89492       54.11912      102.97445
H         55.19779       52.16235      102.93782
H         55.14848       50.63234      104.90354
H         56.74684       51.21663      105.46036
H         55.65959       53.52206      105.64844
H         54.85725       54.24784      104.19934
H         54.13132       52.82918      105.01759
H         56.15577       49.67186      102.86344
H         57.80543       50.20028      103.41784
H         56.87707       49.01002      104.37532
N         56.99027       52.24234      100.88563
C         57.50951       51.56884       99.69580
C         57.24491       52.36754       98.41335
O         57.54767       51.86736       97.33874
C         56.93849       50.13223       99.68873
C         57.72635       49.13176       98.87581
O         57.45333       47.82171       99.02962
O         58.67412       49.46886       98.18419
H         55.98704       52.47447      100.90929
H         58.61102       51.44881       99.78371
H         55.85780       50.12089       99.43506
H         57.04229       49.75036      100.72552
N         56.75652       53.64615       98.44806
C         56.60130       54.47638       97.25448
C         55.44939       53.98583       96.38005
O         54.34012       53.91401       96.89206
C         56.30700       55.94339       97.65234
C         56.25623       56.83300       96.43008
C         57.42066       57.07107       95.67831
C         55.04446       57.41241       96.01764
C         57.37018       57.86327       94.52821
C         54.99764       58.20129       94.86366
C         56.15879       58.42501       94.11882
H         56.56547       54.08510       99.36017
H         57.57180       54.47440       96.71844
H         57.09014       56.33009       98.34031
H         55.33907       55.97454       98.20082
H         58.36646       56.63744       95.97887
H         54.13363       57.23940       96.57678
H         58.26975       58.03674       93.95168
H         54.05937       58.63480       94.54321
H         56.12003       59.03267       93.22410
N         55.59635       53.69199       95.04804
C         54.50413       53.28952       94.16822
C         53.68825       52.15070       94.72997
O         52.46805       52.22874       94.74303
C         55.22100       52.84151       92.88816
C         56.39579       53.78562       92.85430
C         56.84380       53.77518       94.31314
H         53.85994       54.17554       93.96429
H         55.64806       51.82121       93.02067
H         54.57840       52.83875       91.98176
H         57.19300       53.53575       92.12313
H         55.99684       54.79948       92.61626
H         57.46296       52.88705       94.56620
H         57.40915       54.70869       94.48997
N         54.32702       51.07159       95.25598
C         53.64736       49.92832       95.84813
C         52.73574       50.39207       96.96774
O         51.54426       50.12192       96.90363
C         54.68294       48.91019       96.37472
C         55.54097       48.31973       95.23992
C         56.58321       47.39064       95.78487
O         56.21999       46.28983       96.46950
O         57.76719       47.62811       95.60544
H         55.35704       51.09386       95.26441
H         53.02909       49.42195       95.07249
H         54.15221       48.07719       96.88606
H         55.34365       49.41183       97.11428
H         56.05748       49.12359       94.67544
H         54.89301       47.76566       94.52801
N         53.22272       51.13292       98.00259
C         52.39182       51.65277       99.07045
H         51.32613       51.35861       98.96226
H         52.76362       51.27662      100.04537
H         52.44467       52.76211       99.06717
H         54.22583       51.36773       98.02546
Ca        58.79898       46.19363       98.20138
O         62.42770       46.05710       96.81412
H         62.31708       45.65879       95.91478
H         63.21001       45.58830       97.19899
O         61.39147       47.53341       99.31811
H         61.34840       48.39120       99.81043
H         62.24945       47.12688       99.59921
O         61.12344       48.90514       96.23563
H         60.73610       49.56934       95.61178
H         62.05138       48.77555       95.91525
O         59.84250       45.73843       94.68839
H         60.13028       46.12180       93.82212
H         59.13916       45.08339       94.45062

Ca 1.0



