%chk=apoCaM-CA-Ng.loop2.water4.frame611.chk
%nprocshared=20
%mem=10GB
%nosave
#b3lyp/svp scf=(tight,noincore,xqc) Test 
#IOP(5/87=12) Density=Current Pop=(MK,readradii) iop(6/33=2) iop(6/42=6)

apoCaM-CA-Ng.loop2.water4.frame611 

   -2  1 
C         68.52819       36.92152       66.20297
C         68.71011       38.41178       66.18857
O         68.97089       38.95925       65.12695
H         67.69254       36.63956       65.52918
H         69.46041       36.43251       65.84878
H         68.30253       36.54834       67.22399
N         68.59538       39.13565       67.33869
C         68.78950       40.57939       67.40694
C         67.51254       41.24529       67.88428
O         67.02754       40.92205       68.96046
C         69.95090       40.91863       68.36338
C         71.29367       40.40047       67.90901
O         71.41852       39.77369       66.86833
O         72.38226       40.65031       68.66038
H         68.37025       38.64042       68.21563
H         69.05394       40.99470       66.40928
H         69.73369       40.50873       69.37350
H         70.03439       42.02456       68.44362
N         66.92602       42.21534       67.12617
C         65.70408       42.92017       67.51667
C         64.51076       41.96476       67.53122
O         64.66165       40.85447       67.03829
C         65.46955       44.05309       66.49941
H         67.38974       42.48183       66.24321
H         65.86639       43.35835       68.52372
H         66.35552       44.72246       66.48090
H         65.32800       43.62798       65.48196
H         64.60099       44.68846       66.71902
N         63.27483       42.27634       68.03165
C         62.89235       43.50070       68.74678
C         63.57569       43.62226       70.10200
O         64.25589       42.70232       70.53627
C         61.34941       43.54340       68.93466
C         60.80220       42.37958       69.71943
O         59.59614       42.22678       69.82638
O         61.63938       41.46959       70.24658
H         62.54485       41.56020       67.88877
H         63.14164       44.38182       68.14015
H         60.88817       43.51557       67.92340
H         61.03108       44.48894       69.42196
N         63.39637       44.75388       70.83928
C         63.90247       44.93547       72.18832
C         65.41006       44.84140       72.25501
O         66.04882       45.32224       71.32939
H         62.84685       45.52732       70.43517
H         63.39685       44.21792       72.85020
H         63.61747       45.95469       72.52879
N         66.09751       44.35071       73.33162
C         65.53808       43.84357       74.58690
C         66.16955       42.50582       74.93301
O         67.38944       42.40361       74.92553
C         65.81738       44.86555       75.70125
C         65.05754       46.14657       75.44348
N         65.70707       47.31704       75.25109
O         63.83562       46.12270       75.40458
H         67.12743       44.41792       73.28799
H         64.44241       43.71199       74.55835
H         66.91051       45.05808       75.76719
H         65.47746       44.46046       76.67960
H         66.73550       47.36219       75.27365
H         65.17628       48.18238       75.07011
N         65.39807       41.43749       75.28475
C         65.98186       40.13929       75.58760
C         64.94143       39.14105       76.04185
O         65.08934       38.58250       77.11992
H         64.37651       41.55894       75.34605
H         66.74709       40.24954       76.38857
H         66.47961       39.74932       74.67422
N         63.84925       38.88024       75.27027
C         62.80559       37.92280       75.63289
C         62.62056       36.90537       74.50839
O         63.32731       36.97875       73.51191
C         61.50353       38.67675       75.99416
C         61.71800       39.57696       77.22403
O         61.07427       39.44551       74.90466
H         63.73702       39.40406       74.39024
H         63.09942       37.34426       76.53717
H         60.71926       37.93223       76.25613
H         60.18432       39.81042       75.15060
H         60.76700       40.07848       77.50194
H         62.05260       38.96984       78.09297
H         62.47752       40.36063       77.01918
N         61.71652       35.88912       74.63022
C         61.59681       34.78942       73.67328
C         60.20419       34.75998       73.06420
O         59.22794       34.71601       73.80002
C         61.92553       33.44774       74.39489
C         61.73656       32.24177       73.43466
C         63.36480       33.50196       74.94721
C         61.99896       30.87907       74.07303
H         61.12566       35.84754       75.47413
H         62.33290       34.89863       72.84690
H         61.22590       33.32112       75.25148
H         62.39135       32.35440       72.54611
H         60.68126       32.21954       73.09367
H         63.48763       34.35402       75.64778
H         63.61036       32.59044       75.52585
H         64.09595       33.61627       74.11787
H         61.33937       30.73542       74.95464
H         61.78030       30.08243       73.33063
H         63.05928       30.76944       74.37514
N         60.05691       34.70582       71.70564
C         58.76855       34.59727       71.02658
C         58.65040       33.27880       70.27283
O         57.62035       33.07039       69.64491
C         58.60881       35.72230       69.98711
C         58.90091       37.08859       70.50889
O         58.08195       37.98698       70.39868
O         60.14115       37.35230       70.95253
H         60.90236       34.70688       71.11538
H         57.93602       34.66259       71.76093
H         57.58436       35.68901       69.55224
H         59.33466       35.55567       69.16141
N         59.65283       32.34735       70.26789
C         59.59012       31.11874       69.49435
C         60.85327       31.01439       68.64504
O         61.64848       30.11495       68.87261
C         59.35911       29.93055       70.45810
C         58.82183       28.71410       69.72789
C         59.66415       27.80337       69.06446
C         57.42977       28.49951       69.69259
C         59.12236       26.71083       68.37768
C         56.89395       27.41105       69.00120
C         57.73929       26.51742       68.34271
H         60.49974       32.49018       70.83163
H         58.70220       31.12681       68.82544
H         58.55325       30.26413       71.14967
H         60.22950       29.69803       71.10947
H         60.73610       27.92024       69.07758
H         56.75357       29.18609       70.18746
H         59.77558       26.01346       67.86947
H         55.82172       27.26468       68.97315
H         57.32178       25.67538       67.80611
N         61.13251       31.90835       67.64368
C         62.28869       31.79317       66.76505
C         63.64151       31.85727       67.45212
O         64.62479       31.51393       66.81012
C         62.14541       32.98830       65.81552
C         60.64282       33.14575       65.73895
C         60.24086       32.95851       67.19932
H         62.17876       30.82381       66.22795
H         62.52555       33.90783       66.31881
H         62.67269       32.87482       64.84446
H         60.28760       34.09316       65.28126
H         60.24469       32.28788       65.14971
H         60.44876       33.87241       67.79686
H         59.16529       32.69006       67.23919
N         63.79132       32.35138       68.71696
C         65.09579       32.42982       69.36266
C         65.55019       31.02698       69.70490
O         66.58753       30.59949       69.21702
C         65.07504       33.29951       70.64437
C         65.00173       34.82578       70.41605
C         63.72776       35.34665       69.81168
O         62.95993       36.20339       70.51058
O         63.41951       35.06775       68.66559
H         62.96528       32.70218       69.22287
H         65.83382       32.89983       68.67262
H         66.04894       33.14068       71.16066
H         64.27600       32.96927       71.33789
H         65.85618       35.15065       69.78341
H         65.12215       35.30564       71.41203
N         64.81236       30.24983       70.54495
C         65.21170       28.90711       70.90197
H         66.20064       28.92757       71.40744
H         64.46624       28.46393       71.59601
H         65.27202       28.27446       69.99118
H         63.93740       30.62095       70.94543
Ca        60.98398       39.38577       70.64665
O         58.92842       39.59608       72.79204
H         58.28029       39.84250       73.49768
H         59.29838       38.72637       73.08866
O         63.11810       38.16033       68.03427
H         62.94521       37.46410       67.35178
H         62.46079       38.87277       67.83367
O         62.73130       41.39541       73.06806
H         62.39152       42.18010       72.57365
H         62.39008       41.52735       73.98703
O         64.49032       39.36323       70.92019
H         64.50706       39.83293       70.04860
H         64.98908       39.95965       71.53355

Ca 1.0



