%chk=apoCaM-CA-Ng.loop1.water3.frame466.chk
%nprocshared=20
%mem=10GB
%nosave
#b3lyp/svp scf=(tight,noincore,xqc) Test 
#IOP(5/87=12) Density=Current Pop=(MK,readradii) iop(6/33=2) iop(6/42=6)

apoCaM-CA-Ng.loop1.water3.frame466 

   0  1 
C         47.34753       45.60036       65.65533
C         45.84644       45.56364       65.60993
O         45.26885       44.52063       65.88034
H         47.76252       44.86833       64.93247
H         47.73791       46.60848       65.39806
H         47.69517       45.34439       66.67815
N         45.14246       46.68329       65.28826
C         43.68372       46.73561       65.26850
C         43.06802       45.96257       64.09850
O         41.85594       46.00135       63.99273
C         43.19607       48.20897       65.18563
C         43.59424       49.04540       66.37410
O         44.76886       49.26577       66.62041
O         42.64244       49.58971       67.15687
H         45.67207       47.54687       65.09575
H         43.28951       46.32126       66.22344
H         42.08676       48.21945       65.14666
H         43.57007       48.69071       64.25996
N         43.79104       45.27525       63.16277
C         43.17566       44.71298       61.95943
C         43.22730       43.19291       61.93204
O         44.29293       42.65505       62.19747
C         43.85920       45.25909       60.68477
C         43.53345       46.73063       60.37968
C         44.32221       47.74527       61.21066
C         43.87931       49.17088       60.85453
N         44.70151       50.16584       61.53926
H         44.81191       45.18846       63.25535
H         42.12743       45.01577       61.89161
H         43.43974       44.69314       59.83053
H         44.95409       45.06722       60.67838
H         42.43810       46.89101       60.48793
H         43.79608       46.91869       59.31567
H         45.40364       47.61579       60.98791
H         44.16632       47.59535       62.29091
H         42.81286       49.30412       61.14703
H         43.96290       49.33016       59.75656
H         44.64905       50.03507       62.57461
H         45.69457       50.08132       61.22197
H         44.35025       51.12059       61.29806
N         42.17773       42.40005       61.51674
C         40.83742       42.82526       61.07680
C         40.90692       43.85501       59.94970
O         40.47704       44.98345       60.13969
C         39.96217       43.26762       62.27066
C         39.73497       42.16021       63.25360
O         39.12838       42.39254       64.28715
O         40.19219       40.91427       63.02053
H         42.36089       41.38551       61.46140
H         40.29464       41.94665       60.66280
H         38.96204       43.58145       61.90910
H         40.42668       44.10786       62.81279
N         41.41595       43.55625       58.72167
C         41.80519       42.20809       58.34716
C         42.23038       42.08405       56.89358
O         42.48321       43.09330       56.25136
H         41.44381       44.31243       58.02063
H         40.90145       41.58868       58.48819
H         42.61809       41.82151       58.99570
N         42.28416       40.87550       56.25784
C         41.89097       39.60755       56.86877
C         40.55159       39.16811       56.30928
O         40.12392       39.68658       55.28571
C         42.98920       38.54265       56.70132
C         43.29960       38.23713       55.25953
O         42.44434       37.76529       54.52720
O         44.53273       38.47298       54.77298
H         42.52577       40.87206       55.25412
H         41.74739       39.72573       57.95867
H         42.68295       37.60319       57.21015
H         43.91135       38.91559       57.19811
N         39.78690       38.27200       56.99362
C         38.45359       37.87924       56.56714
C         37.56473       39.08984       56.39418
O         37.03303       39.28537       55.31068
H         40.14343       37.88597       57.88159
H         38.00998       37.20785       57.33458
H         38.51848       37.31766       55.61029
N         37.39497       39.96717       57.42059
C         36.61124       41.19697       57.31581
C         37.50704       42.41408       57.52205
O         38.68377       42.25983       57.80256
C         35.42275       41.16808       58.32002
C         35.84489       40.89682       59.77139
O         34.45493       40.22997       57.92085
H         37.87639       39.76874       58.31109
H         36.18363       41.30784       56.29537
H         34.92605       42.16056       58.29702
H         34.88639       39.33724       57.89241
H         36.24158       39.86656       59.88625
H         36.63119       41.61048       60.08455
H         34.96613       40.99541       60.44371
N         36.99908       43.67024       57.37329
C         37.76631       44.90255       57.56314
C         37.21197       45.70134       58.74715
O         37.54193       46.87103       58.88162
C         37.77875       45.74375       56.24393
C         36.36226       46.22195       55.81938
C         38.47233       44.94889       55.12008
C         36.37715       47.21273       54.65162
H         36.00335       43.76497       57.12713
H         38.82946       44.68642       57.80497
H         38.39926       46.64724       56.43960
H         35.88576       46.74891       56.67269
H         35.72200       45.35830       55.54297
H         37.88808       44.04137       54.85748
H         38.59930       45.56443       54.20697
H         39.48877       44.63715       55.44219
H         36.98931       48.10310       54.90996
H         36.77207       46.75059       53.72503
H         35.33987       47.54960       54.44155
N         36.36398       45.12354       59.64885
C         35.66515       45.84454       60.71554
C         36.55454       46.53095       61.75204
O         36.01430       47.29165       62.54288
C         34.69455       44.87506       61.45145
C         35.44901       43.77313       62.22908
O         33.83343       44.28798       60.50868
H         36.14489       44.12645       59.53071
H         35.06466       46.63755       60.21730
H         34.08759       45.46490       62.17497
H         33.15087       43.77581       61.01571
H         36.09315       44.20613       63.01475
H         34.73138       43.08770       62.72490
H         36.09924       43.17523       61.56779
N         37.88832       46.26702       61.86332
C         38.77346       46.80489       62.90385
C         38.32594       46.36706       64.30867
O         37.23433       45.84031       64.45683
C         38.92160       48.34867       62.78719
C         39.38907       48.76646       61.38773
O         39.85866       48.81122       63.72438
H         38.30895       45.61056       61.19661
H         39.77209       46.36008       62.72451
H         37.93279       48.81862       62.99039
H         39.67401       49.77585       63.87196
H         39.48996       49.87169       61.33825
H         40.37330       48.30863       61.15330
H         38.65282       48.46019       60.61866
N         39.14005       46.52953       65.39372
C         38.73482       46.21031       66.76087
C         39.49430       45.02185       67.35301
O         39.22569       44.69941       68.50304
C         38.93204       47.46170       67.64679
C         38.10440       48.66359       67.16147
C         38.29760       49.87398       68.08526
C         37.45018       51.06715       67.62156
N         37.62068       52.21103       68.51767
H         40.08034       46.91892       65.26514
H         37.65942       45.93002       66.79757
H         40.01050       47.73807       67.66041
H         38.61978       47.22264       68.68726
H         37.02904       48.38124       67.14898
H         38.41142       48.94359       66.13075
H         39.37081       50.16691       68.09343
H         37.99532       49.59690       69.11895
H         36.37655       50.77476       67.60576
H         37.74963       51.36012       66.59053
H         37.02518       53.00202       68.18122
H         37.32403       51.95566       69.48778
H         38.62027       52.51866       68.52409
N         40.42000       44.29782       66.65304
C         41.13194       43.15904       67.24046
C         41.95561       43.60978       68.42954
O         42.82613       44.45484       68.27174
C         42.03935       42.47143       66.19227
C         42.95890       41.36328       66.75551
C         42.28407       40.23097       67.50062
O         42.55906       40.04569       68.67525
O         41.47870       39.34620       66.87769
H         40.61745       44.54773       65.67461
H         40.38625       42.40083       67.56864
H         42.70117       43.23436       65.72587
H         41.40566       42.05911       65.39127
H         43.68553       41.84638       67.44411
H         43.54936       40.93139       65.91915
N         41.74182       43.04696       69.65207
C         42.51453       43.37203       70.83171
H         43.29367       44.13617       70.63043
H         41.83572       43.75354       71.62188
H         43.01487       42.45173       71.20104
H         41.00545       42.33242       69.75653
Ca        40.66240       39.69868       64.82688
O         39.66761       36.78080       66.51914
H         40.47760       36.25800       66.74526
H         39.24155       36.96811       67.39319
O         38.04652       39.64278       66.45856
H         37.83306       40.18035       65.65488
H         38.77084       40.14623       66.90842
O         38.05231       37.73449       63.27550
H         37.38218       37.71208       62.54672
H         37.52033       37.88566       64.09683

Ca 1.0



