%chk=apoCaM-CA-Ng.loop2.water4.frame271.chk
%nprocshared=20
%mem=10GB
%nosave
#b3lyp/svp scf=(tight,noincore,xqc) Test 
#IOP(5/87=12) Density=Current Pop=(MK,readradii) iop(6/33=2) iop(6/42=6)

apoCaM-CA-Ng.loop2.water4.frame271 

   -2  1 
C         24.26194       30.44296       32.47552
C         23.76618       30.18493       33.86908
O         23.29848       29.08610       34.13008
H         25.08396       29.73597       32.23505
H         23.43264       30.29234       31.75272
H         24.64357       31.47955       32.36502
N         23.85531       31.14754       34.83135
C         23.38626       30.93778       36.19669
C         21.87413       30.81856       36.19890
O         21.20499       31.76847       35.81389
C         23.83645       32.10550       37.10165
C         23.50297       31.92226       38.56192
O         22.92578       30.92418       38.96541
O         23.86434       32.87477       39.44156
H         24.29637       32.04783       34.58708
H         23.86513       30.01182       36.58829
H         23.37802       33.05294       36.74306
H         24.94068       32.20362       37.02431
N         21.26833       29.66439       36.59664
C         19.82161       29.47532       36.55577
C         19.31629       29.72217       35.14785
O         18.39058       30.50228       34.97666
C         19.45247       28.06638       37.03540
H         21.86327       28.87920       36.90448
H         19.33082       30.19332       37.25075
H         19.90973       27.28693       36.39033
H         19.81170       27.92247       38.07802
H         18.34867       27.93772       37.03317
N         19.94590       29.14324       34.08540
C         19.62828       29.40587       32.68827
C         18.22360       28.93861       32.36946
O         17.40029       29.71570       31.90402
C         19.89307       30.89034       32.33292
C         19.72106       31.12930       30.86271
O         18.82208       32.02856       30.41773
O         20.38956       30.49350       30.06558
H         20.73101       28.50174       34.27181
H         20.32416       28.79511       32.06955
H         20.93975       31.15036       32.60238
H         19.21552       31.56633       32.89608
N         17.88826       27.64621       32.62122
C         16.57264       27.09960       32.36754
C         16.67863       25.85634       31.53153
O         16.31334       24.79581       32.02054
H         18.59218       27.02377       33.04763
H         15.89944       27.82747       31.86460
H         16.11795       26.83912       33.34705
N         17.13960       25.89943       30.24809
C         17.17762       24.69490       29.42279
C         18.19347       23.68830       29.94416
O         19.02215       24.01898       30.78165
C         17.43869       25.02780       27.93958
C         16.34444       25.91062       27.38500
N         16.62377       27.13791       26.88839
O         15.18960       25.50920       27.38496
H         17.40409       26.81087       29.84166
H         16.17234       24.21993       29.48609
H         17.45238       24.09216       27.33902
H         18.43175       25.51706       27.83590
H         17.58864       27.49795       26.87590
H         15.86858       27.73311       26.51589
N         18.13116       22.40205       29.50666
C         18.91884       21.31545       30.05924
C         20.11165       20.97919       29.20309
O         19.97094       20.89720       27.99137
H         17.37207       22.14582       28.85661
H         18.27266       20.41150       30.04117
H         19.17031       21.47345       31.13169
N         21.29746       20.64184       29.78617
C         22.42657       20.12657       29.01554
C         23.02629       21.20145       28.12637
O         23.14744       20.96415       26.93170
C         23.47618       19.39342       29.90115
C         24.24147       20.25031       30.91634
O         22.87695       18.29447       30.54674
H         21.35519       20.65823       30.81487
H         22.04804       19.31145       28.35627
H         24.24180       18.97242       29.21206
H         22.30606       18.63635       31.28293
H         24.96155       19.60225       31.46237
H         24.82485       21.03691       30.40548
H         23.55753       20.71519       31.65406
N         23.37783       22.42186       28.62454
C         23.92451       23.49844       27.79642
C         22.93870       24.64686       27.68693
O         21.92144       24.64616       28.37008
C         25.30412       23.99634       28.34058
C         25.20976       24.48477       29.81521
C         26.36793       22.90113       28.16347
C         26.48147       25.16337       30.32828
H         23.19818       22.60922       29.62233
H         24.06916       23.14402       26.75202
H         25.62818       24.85606       27.71427
H         24.97678       23.63620       30.49207
H         24.39287       25.23317       29.90010
H         27.37375       23.26734       28.45118
H         26.12615       22.00495       28.76703
H         26.42710       22.60386       27.09495
H         27.34257       24.46600       30.33892
H         26.72537       26.04730       29.70218
H         26.31698       25.50640       31.37240
N         23.18990       25.66767       26.81653
C         22.34610       26.84756       26.68320
C         21.82344       26.93744       25.24740
O         21.86598       28.00229       24.65403
C         23.23993       28.04234       27.09830
C         22.59007       29.38103       27.28222
O         21.26980       29.57563       27.12570
O         23.28831       30.32350       27.61928
H         24.03949       25.62262       26.23070
H         21.47631       26.77203       27.37122
H         24.06240       28.14307       26.35440
H         23.70114       27.79648       28.08052
N         21.38226       25.81372       24.60426
C         20.97331       25.76383       23.19374
C         22.06259       26.35357       22.29180
O         23.18788       25.88515       22.37042
C         20.75139       24.28400       22.78229
C         20.49028       24.11029       21.30006
C         19.29697       24.55826       20.70955
C         21.46758       23.50115       20.49024
C         19.09038       24.40083       19.33275
C         21.26112       23.35457       19.11696
C         20.07312       23.80311       18.53772
H         21.39980       24.92748       25.13247
H         20.01945       26.31254       23.06931
H         19.92590       23.82547       23.36908
H         21.68109       23.73101       23.04392
H         18.52913       25.02654       21.31186
H         22.39957       23.15320       20.91827
H         18.17010       24.74476       18.87895
H         22.02528       22.89541       18.50248
H         19.91626       23.68726       17.47280
N         21.80824       27.35100       21.38114
C         22.82371       27.88202       20.47904
C         23.79805       28.79517       21.20458
O         24.90646       28.98224       20.71950
C         21.99406       28.63147       19.42730
C         20.82550       29.15084       20.23821
C         20.51203       27.95792       21.13953
H         23.38446       27.07077       19.96431
H         22.54910       29.39044       18.83450
H         21.57063       27.87992       18.72246
H         21.20551       29.98316       20.86657
H         19.95872       29.53080       19.65681
H         20.01680       28.33214       22.06141
H         19.86684       27.21810       20.62157
N         23.43823       29.42863       22.35291
C         24.29544       30.34563       23.09499
C         25.45798       29.64356       23.79594
O         26.23778       30.33651       24.43486
C         23.42714       31.13327       24.10532
C         22.43145       32.04143       23.35362
C         21.46109       32.70831       24.27407
O         21.43264       33.92434       24.37214
O         20.56209       31.96356       24.93931
H         22.47718       29.29358       22.69246
H         24.73140       31.09063       22.39280
H         24.06162       31.78096       24.74836
H         22.89164       30.41535       24.75979
H         21.82466       31.46478       22.62823
H         23.00988       32.80493       22.78979
N         25.67192       28.29730       23.71261
C         26.81198       27.66499       24.34342
H         27.75480       28.10810       23.95482
H         26.76435       27.80073       25.44410
H         26.81878       26.57737       24.11601
H         25.03584       27.69154       23.18014
Ca        20.56985       31.67373       27.61203
O         23.34318       33.41651       27.20052
H         24.20253       32.93939       27.31924
H         23.39957       33.80193       26.29106
O         19.89852       34.49984       28.45052
H         19.76578       34.53202       29.43113
H         19.80417       35.43980       28.15493
O         17.69551       31.88243       27.10916
H         17.42487       31.16559       27.73637
H         17.64518       31.46241       26.21394
O         22.49805       32.61940       30.15487
H         22.20438       33.50270       30.49193
H         23.45972       32.73535       29.95164

Ca 1.0



