%chk=apoCaM-CA-Ng.loop2.water4.frame496.chk
%nprocshared=20
%mem=10GB
%nosave
#b3lyp/svp scf=(tight,noincore,xqc) Test 
#IOP(5/87=12) Density=Current Pop=(MK,readradii) iop(6/33=2) iop(6/42=6)

apoCaM-CA-Ng.loop2.water4.frame496 

   -2  1 
C         67.86557       53.00938       67.24065
C         68.62405       51.82224       66.71882
O         68.60487       50.78229       67.35980
H         66.78724       52.75943       67.32376
H         68.24963       53.28404       68.24329
H         67.97532       53.88959       66.57268
N         69.29056       51.88943       65.53391
C         70.02915       50.75624       64.98717
C         71.34044       50.54618       65.73401
O         72.17034       51.44483       65.72164
C         70.27746       50.92033       63.46658
C         71.20049       52.04900       63.07382
O         72.23765       51.80329       62.47880
O         70.88617       53.32960       63.34508
H         69.20796       52.75604       64.98498
H         69.38389       49.85291       65.07161
H         69.30049       51.06621       62.95659
H         70.71023       49.96609       63.09192
N         71.60780       49.37350       66.38220
C         72.89188       49.09046       67.02571
C         72.73511       48.87265       68.52160
O         71.62318       48.91121       69.02609
C         73.52811       47.87465       66.34368
H         70.88787       48.63455       66.39164
H         73.58849       49.94829       66.90217
H         74.53025       47.65251       66.76481
H         72.88255       46.97862       66.46110
H         73.65786       48.08285       65.25978
N         73.83413       48.64807       69.29946
C         73.79917       48.55535       70.75695
C         74.03197       47.13686       71.24441
O         74.14113       46.94546       72.44886
C         74.84764       49.51260       71.35485
C         74.57956       50.93809       70.96999
O         75.40802       51.56852       70.33347
O         73.43074       51.53233       71.34256
H         74.75532       48.55889       68.84416
H         72.80106       48.84754       71.15381
H         75.86110       49.21012       71.00954
H         74.82682       49.45307       72.46482
N         74.02156       46.07538       70.38783
C         74.10841       44.69342       70.82936
C         72.91786       44.22489       71.65350
O         72.90517       43.04615       71.98491
H         73.92743       46.22968       69.37417
H         75.04948       44.53945       71.40008
H         74.14589       44.04480       69.92705
N         71.89380       45.04913       72.03625
C         70.74657       44.59447       72.80818
C         69.44982       44.98357       72.12612
O         69.45416       45.73971       71.16073
C         70.79820       45.19188       74.23032
C         71.98626       44.66587       74.99856
N         72.94614       45.49979       75.46077
O         72.07670       43.46574       75.21307
H         71.90440       46.04736       71.79502
H         70.74853       43.48508       72.89073
H         69.88655       44.91299       74.80124
H         70.82987       46.30234       74.16307
H         72.89297       46.51494       75.29534
H         73.74978       45.12571       75.98763
N         68.28595       44.45920       72.58598
C         66.97603       44.73797       72.03206
C         66.03397       45.19974       73.11590
O         66.46816       45.48406       74.22637
H         68.32777       43.78170       73.36440
H         66.58531       43.78384       71.61929
H         67.00113       45.48499       71.20715
N         64.69704       45.22630       72.87644
C         63.72203       45.58130       73.90225
C         63.82184       47.06094       74.24012
O         63.96041       47.38908       75.40932
C         62.28391       45.11653       73.53829
C         61.65909       45.74154       72.28581
O         62.24053       43.71163       73.44692
H         64.37108       44.92117       71.94666
H         63.95075       44.99888       74.82521
H         61.63048       45.39599       74.39360
H         62.77694       43.43213       72.66021
H         62.24023       45.49671       71.37406
H         60.63163       45.33745       72.15830
H         61.57900       46.83964       72.39231
N         63.84504       48.00018       73.25106
C         64.04796       49.43105       73.49221
C         65.45733       49.81855       73.07284
O         66.20180       48.95452       72.62788
C         62.92058       50.28799       72.83929
C         62.76628       50.01461       71.31971
C         61.60433       50.05691       73.60352
C         61.78606       50.96179       70.62392
H         63.81412       47.67234       72.27522
H         64.03697       49.64731       74.58331
H         63.18024       51.35928       72.97648
H         62.41505       48.97558       71.14632
H         63.75403       50.14010       70.82692
H         61.26904       49.00345       73.51384
H         61.74871       50.29199       74.68042
H         60.80046       50.72735       73.24114
H         60.75780       50.85358       71.02378
H         62.11962       52.01424       70.74048
H         61.74710       50.71918       69.54092
N         65.92544       51.08771       73.28009
C         67.33903       51.42777       73.16063
C         67.81180       52.00744       74.49815
O         68.43500       53.05729       74.53536
C         67.55986       52.35439       71.94332
C         69.01312       52.62739       71.65639
O         69.36563       53.38520       70.60287
O         69.89357       52.16856       72.36868
H         65.28444       51.81990       73.61986
H         67.93023       50.50421       72.97744
H         67.02496       53.31619       72.09673
H         67.13484       51.85985       71.04332
N         67.48619       51.36430       75.65538
C         67.84814       51.81023       77.00330
C         67.44042       53.26484       77.25428
O         66.27811       53.57969       77.03961
C         67.10624       50.91528       78.02789
C         67.42126       51.27802       79.45777
C         68.69944       51.04003       79.98720
C         66.43566       51.86084       80.27392
C         68.98833       51.38560       81.31099
C         66.73055       52.21102       81.59407
C         68.00575       51.97330       82.11266
H         66.91335       50.50999       75.57072
H         68.94015       51.68167       77.13798
H         67.35127       49.84274       77.86820
H         66.01380       51.03127       77.84455
H         69.46951       50.58742       79.37516
H         65.44348       52.05694       79.88609
H         69.97487       51.19980       81.71456
H         65.97018       52.66827       82.21409
H         68.23184       52.24427       83.13560
N         68.30883       54.20076       77.76613
C         67.89699       55.55080       78.12064
C         67.79541       56.45685       76.91160
O         67.19955       57.51911       77.03609
C         68.99495       56.01337       79.08268
C         70.22254       55.34613       78.49403
C         69.68702       53.95701       78.14707
H         66.92331       55.54503       78.66009
H         69.06363       57.11276       79.23368
H         68.81500       55.53500       80.07264
H         70.46932       55.87772       77.54769
H         71.12660       55.34351       79.13895
H         70.30124       53.51977       77.33158
H         69.69381       53.29987       79.03903
N         68.37189       56.13320       75.72000
C         68.22559       56.96507       74.53776
C         66.77000       56.95635       74.11750
O         66.16670       58.01605       74.02861
C         69.11304       56.47040       73.38135
C         70.62295       56.57781       73.69093
C         71.39116       56.17950       72.46905
O         71.22021       56.78314       71.42103
O         72.13854       55.06495       72.46568
H         68.92950       55.27124       75.64814
H         68.54761       58.00671       74.76586
H         68.89255       57.10920       72.49715
H         68.85927       55.41906       73.11788
H         70.88770       55.90481       74.53472
H         70.89629       57.61898       73.96245
N         66.13235       55.77682       73.87659
C         64.73573       55.71208       73.51053
H         64.11464       56.17588       74.30640
H         64.57025       56.24243       72.54974
H         64.42579       54.65121       73.39376
H         66.64710       54.89090       73.97889
Ca        71.54676       53.91740       70.65381
O         73.58596       53.07074       68.19642
H         74.27389       52.62488       67.64164
H         72.78783       52.49215       68.11311
O         74.52289       55.09860       70.61189
H         75.24886       55.24196       69.95472
H         74.45431       54.11475       70.69422
O         70.81092       54.80134       67.82484
H         71.15814       54.56770       66.92760
H         70.43472       55.71102       67.71896
O         70.61696       51.38190       69.22894
H         69.79961       50.91522       69.53532
H         71.24800       51.26791       69.98115

Ca 1.0



