%chk=apoCaM-CA-Ng.loop2.water4.frame1184.chk
%nprocshared=20
%mem=10GB
%nosave
#b3lyp/svp scf=(tight,noincore,xqc) Test 
#IOP(5/87=12) Density=Current Pop=(MK,readradii) iop(6/33=2) iop(6/42=6)

apoCaM-CA-Ng.loop2.water4.frame1184 

   -2  1 
C         31.84166       14.80752        2.04900
C         31.84886       15.52727        3.36658
O         31.41435       16.66910        3.40835
H         32.87696       14.53712        1.75738
H         31.21878       13.89154        2.13097
H         31.40754       15.45291        1.25583
N         32.29046       14.94635        4.51673
C         32.82315       13.58952        4.62287
C         34.20285       13.61745        5.27801
O         34.77707       14.69153        5.39857
C         31.79864       12.68493        5.34653
C         31.52446       13.05066        6.77011
O         31.81589       12.17150        7.74699
O         30.98605       14.11000        7.04520
H         32.22082       15.50067        5.38492
H         32.94915       13.11906        3.62714
H         32.15209       11.63471        5.31753
H         30.83898       12.70281        4.78746
N         34.78459       12.47274        5.75112
C         36.08978       12.40342        6.39892
C         36.28639       13.52691        7.40827
O         37.26265       14.25728        7.28456
C         37.19517       12.39368        5.32899
H         34.26837       11.58592        5.69029
H         36.15910       11.42799        6.93040
H         37.20206       13.34567        4.75640
H         38.19028       12.25417        5.80585
H         37.03462       11.55394        4.62009
N         35.39656       13.75298        8.42376
C         35.56364       14.90757        9.30821
C         34.91120       14.76211       10.67092
O         34.32353       13.73427       10.97395
C         35.22420       16.22429        8.55568
C         33.81252       16.51629        8.09001
O         32.70824       15.80455        8.40085
O         33.65799       17.50137        7.38570
H         34.58903       13.12168        8.53840
H         36.64285       14.96614        9.57340
H         35.85414       16.24612        7.64273
H         35.54668       17.09421        9.16241
N         35.07740       15.75495       11.59016
C         34.57459       15.71256       12.95125
C         33.06897       15.74315       13.03915
O         32.38519       15.69558       12.02768
H         35.63488       16.58167       11.33234
H         34.95080       16.61252       13.48377
H         34.96538       14.81292       13.47402
N         32.48568       15.84586       14.26532
C         31.04049       15.84050       14.47906
C         30.33855       16.97722       13.75024
O         30.97811       17.82049       13.13631
C         30.72555       15.93634       15.99601
C         31.24261       14.77675       16.81387
N         31.04193       14.76326       18.15154
O         31.83088       13.84580       16.28281
H         33.10815       15.91060       15.08619
H         30.62894       14.88618       14.08236
H         29.62973       15.96895       16.16479
H         31.15931       16.88104       16.39219
H         30.54519       15.53840       18.61549
H         31.38255       13.97799       18.72529
N         28.98187       17.04312       13.79929
C         28.18039       18.05648       13.14759
C         27.50010       18.92662       14.18592
O         27.86942       18.85519       15.35021
H         28.46432       16.32983       14.33470
H         27.42821       17.50695       12.54166
H         28.77089       18.70610       12.46679
N         26.45685       19.75010       13.88399
C         25.82721       19.82041       12.57282
C         25.53977       21.25984       12.19628
O         25.11067       22.02678       13.04871
C         24.50942       19.00839       12.60699
C         23.92749       18.82646       11.20067
O         24.75134       17.72679       13.13148
H         26.00455       20.25148       14.66528
H         26.46740       19.35645       11.79527
H         23.75203       19.53441       13.23697
H         24.62238       17.78400       14.11502
H         22.99646       18.22496       11.25336
H         23.68901       19.79865       10.72714
H         24.65630       18.28530       10.55704
N         25.63432       21.65831       10.89614
C         25.23126       22.99152       10.43959
C         23.78645       23.30242       10.85233
O         23.03660       22.37068       11.11135
C         25.42229       23.15015        8.89652
C         24.59486       22.09728        8.10378
C         26.92249       23.10680        8.55201
C         24.64298       22.29672        6.59318
H         25.97392       20.96574       10.21578
H         25.88627       23.71217       10.97452
H         25.05659       24.15168        8.59093
H         23.52841       22.17306        8.40425
H         24.93768       21.06514        8.31860
H         27.09508       23.32189        7.47975
H         27.46097       23.89128        9.12635
H         27.37068       22.12159        8.79417
H         24.26023       23.30643        6.33919
H         25.67257       22.16723        6.20262
H         24.00090       21.53736        6.09930
N         23.32650       24.57420       11.05592
C         24.09820       25.79615       10.83637
C         23.26429       26.84910       10.12180
O         22.05266       26.70286       10.03023
C         24.66305       26.30818       12.17570
C         23.60443       26.56501       13.21420
O         23.60433       25.85567       14.35972
O         22.75051       27.41782       13.03392
H         22.38061       24.67259       11.45903
H         24.96832       25.59259       10.19015
H         25.25647       27.23301       12.01352
H         25.35316       25.53087       12.57181
N         23.86684       27.93316        9.54980
C         23.10330       28.97036        8.86308
C         24.00954       29.83392        7.98995
O         24.97829       30.36552        8.51401
C         22.39283       29.88274        9.89138
C         21.49056       30.87619        9.19451
C         21.96143       32.15181        8.83150
C         20.17280       30.51480        8.87039
C         21.12606       33.04416        8.15080
C         19.33923       31.41259        8.19719
C         19.81594       32.67491        7.83483
H         24.89660       27.98577        9.56354
H         22.34058       28.46953        8.23712
H         23.15139       30.41885       10.50518
H         21.78482       29.28854       10.60638
H         22.97677       32.45038        9.06071
H         19.79380       29.53647        9.13755
H         21.49484       34.02070        7.86361
H         18.32472       31.12692        7.95185
H         19.17054       33.36547        7.30719
N         23.73118       30.09726        6.67136
C         22.55749       29.64551        5.93964
C         22.77993       28.30205        5.24924
O         21.85919       27.83412        4.59531
C         22.37745       30.75958        4.90373
C         23.81878       31.05560        4.52677
C         24.49593       31.05758        5.89574
H         21.63946       29.61257        6.56143
H         21.69797       30.51754        4.05886
H         21.97796       31.66126        5.42450
H         24.19601       30.18836        3.93977
H         23.98396       31.97926        3.93331
H         25.57215       30.79446        5.80888
H         24.38443       32.05275        6.38028
N         23.97948       27.64792        5.30504
C         24.24082       26.40918        4.57747
C         24.07929       26.65083        3.07577
O         24.79506       27.50225        2.56655
C         25.67928       25.92345        4.87525
C         26.04631       24.63350        4.11885
C         27.42608       24.13863        4.46244
O         28.20879       24.80006        5.33868
O         27.84614       23.12050        3.93720
H         24.74797       28.05454        5.85652
H         23.56110       25.63795        4.97118
H         25.76302       25.74111        5.97017
H         26.40709       26.71797        4.59572
H         26.00931       24.81564        3.02379
H         25.31221       23.84018        4.35810
N         23.20845       25.97452        2.26467
C         22.27231       24.93525        2.65263
H         21.24647       25.24857        2.36686
H         22.51952       24.00032        2.10755
H         22.25388       24.70010        3.72620
H         23.21046       26.21502        1.26103
Ca        32.04248       14.11272        9.73787
O         29.87875       16.89558        9.24519
H         29.16392       17.58040        9.25590
H         30.71454       17.41511        9.13775
O         28.88456       12.86576        9.00342
H         29.19582       11.93742        8.85694
H         27.92047       12.84239        8.77994
O         29.10596       14.54726       11.58322
H         28.84105       13.91063       12.29383
H         28.26421       15.00552       11.33431
O         31.26288       11.49062       11.02372
H         31.39488       10.93465       10.21515
H         30.48620       11.08235       11.48184

Ca 1.0



