%chk=apoCaM-CA-Ng.loop3.water5.frame398.chk
%nprocshared=20
%mem=10GB
%nosave
#b3lyp/svp scf=(tight,noincore,xqc) Test 
#IOP(5/87=12) Density=Current Pop=(MK,readradii) iop(6/33=2) iop(6/42=6)

apoCaM-CA-Ng.loop3.water5.frame398 

   0  1 
C         12.88681      108.05403       29.11785
C         13.94955      109.10482       29.24200
O         14.81010      108.98589       30.10314
H         11.88692      108.51357       29.26287
H         12.93519      107.59403       28.10855
H         13.02855      107.25726       29.87941
N         13.94778      110.17839       28.40240
C         14.95957      111.22715       28.46160
C         16.31683      110.63883       28.14718
O         16.48890      110.11930       27.05190
C         14.63020      112.34791       27.45374
C         15.64326      113.45921       27.50393
O         15.83651      114.14791       28.64486
O         16.29634      113.74004       26.51148
H         13.19260      110.24753       27.70193
H         14.95181      111.66762       29.48367
H         13.63059      112.77191       27.68776
H         14.59191      111.92335       26.42485
N         17.32114      110.66682       29.07075
C         18.62553      110.07990       28.81581
C         18.79264      108.88613       29.72387
O         19.04610      109.04664       30.91044
C         19.73382      111.13626       28.98802
C         21.12094      110.60654       28.59245
C         22.18349      111.70545       28.72739
C         23.55779      111.20970       28.25785
N         24.56376      112.26506       28.37777
H         17.14412      111.08427       29.99768
H         18.67711      109.72199       27.76449
H         19.74915      111.49929       30.03980
H         19.49108      111.99880       28.32875
H         21.08371      110.26606       27.53434
H         21.39976      109.74355       29.23593
H         22.24742      112.02915       29.78968
H         21.88899      112.57936       28.10556
H         23.48997      110.89145       27.19339
H         23.86951      110.33291       28.86769
H         24.28969      113.09224       27.79891
H         24.66561      112.55301       29.37804
H         25.48265      111.90341       28.03396
N         18.57499      107.63944       29.22411
C         18.70072      106.42904       30.01897
C         20.15961      106.22603       30.37022
O         21.00718      106.44461       29.51524
C         18.12483      105.23031       29.23536
C         18.02119      103.99362       30.08518
O         19.02235      103.44843       30.51002
O         16.81298      103.47778       30.38126
H         18.28087      107.55155       28.23855
H         18.07563      106.52732       30.93611
H         18.72020      105.02431       28.31917
H         17.09124      105.49711       28.92156
N         20.52504      105.78370       31.60435
C         21.90867      105.59260       32.00562
C         22.66911      104.72107       31.03402
O         23.69243      105.16772       30.53395
H         19.78979      105.55419       32.29029
H         21.93273      105.13026       33.01532
H         22.40953      106.58372       32.07280
N         22.21462      103.48196       30.69264
C         22.91467      102.61419       29.75356
C         22.14889      102.43947       28.44545
O         21.96467      101.31839       27.99566
C         23.29720      101.28317       30.44503
C         22.12836      100.56428       31.14084
N         22.57572       99.32649       31.76648
O         21.06296      100.30583       30.27953
H         21.33793      103.14607       31.11055
H         23.87009      103.08375       29.43323
H         24.04004      101.51241       31.23932
H         23.79209      100.61048       29.71054
H         22.86153       98.64846       31.02291
H         21.76821       98.91584       32.28786
N         21.77242      103.53118       27.71653
C         21.32522      103.44356       26.33069
C         20.09021      102.60670       26.06434
O         19.83691      102.34284       24.89756
H         21.92359      104.47091       28.10981
H         22.15793      102.98130       25.75757
H         21.16337      104.46252       25.91615
N         19.27541      102.15385       27.05650
C         18.15409      101.24986       26.81913
C         18.33000      100.03991       27.71063
O         18.41639      100.20192       28.91831
C         16.82403      101.98802       27.06050
C         15.60392      101.10150       26.91411
C         15.37515      100.35576       25.74249
C         14.66864      101.02632       27.96012
C         14.24304       99.54116       25.63161
C         13.53353      100.22006       27.84315
C         13.31859       99.47118       26.67857
O         12.22857       98.68737       26.55333
H         19.45405      102.45251       28.02571
H         18.14020      100.91320       25.76101
H         16.75184      102.81137       26.31679
H         16.83467      102.44844       28.06644
H         16.07096      100.39471       24.91534
H         14.81068      101.60126       28.86561
H         14.08247       98.96529       24.72877
H         12.82172      100.18037       28.65815
H         11.56215       98.61748       27.25200
N         18.40034       98.78638       27.18008
C         18.67883       97.61167       27.99918
C         20.14820       97.64843       28.39718
O         20.45071       97.59399       29.58073
C         18.34583       96.27945       27.25915
C         16.91110       96.24805       26.65791
C         18.53618       95.07363       28.20835
C         15.77299       96.44776       27.66506
H         18.27485       98.67272       26.16383
H         18.02627       97.63387       28.90004
H         19.04874       96.15937       26.40512
H         16.76260       95.27106       26.14774
H         16.81070       97.02976       25.87795
H         19.55847       95.02639       28.62080
H         17.85600       95.13302       29.08189
H         18.34709       94.12250       27.66751
H         15.77123       95.65525       28.43983
H         15.84249       97.44286       28.15067
H         14.80164       96.39760       27.12983
N         21.11676       97.77049       27.43683
C         22.54522       97.83577       27.74351
C         23.10069       96.50560       28.23300
O         24.22728       96.48819       28.70862
C         23.35112       98.24752       26.49770
O         22.90171       99.47873       25.99707
H         20.81752       97.86996       26.45441
H         22.69185       98.61249       28.52530
H         23.23621       97.48257       25.69942
H         24.44035       98.29619       26.73832
H         23.54030      100.17173       26.30858
N         22.39147       95.34605       28.10606
C         22.86755       94.02973       28.50936
C         23.19183       94.00391       29.99167
O         24.29695       93.63812       30.37027
C         24.04404       93.59060       27.62273
H         21.46263       95.37641       27.67237
H         22.04409       93.30149       28.33417
H         24.35187       92.55483       27.87864
H         23.73417       93.60810       26.55571
H         24.92027       94.26024       27.74477
N         22.25553       94.41679       30.89047
C         22.48103       94.46294       32.32781
C         21.38867       93.70141       33.04307
O         20.22342       94.02549       32.85721
C         22.48917       95.91800       32.79166
H         21.34772       94.75491       30.53372
H         23.47357       94.03596       32.59271
H         23.30712       96.46538       32.27675
H         21.52240       96.41332       32.56016
H         22.67071       95.96699       33.88698
N         21.69692       92.67946       33.89271
C         20.70739       91.90942       34.63926
C         19.78555       91.18403       33.67533
O         18.57444       91.35569       33.73143
C         19.93339       92.80324       35.64315
C         20.86722       93.51544       36.63260
C         20.08491       94.38315       37.57712
O         19.41297       95.30875       37.14913
O         20.13186       94.15326       38.90301
H         22.68807       92.42714       34.02687
H         21.24321       91.13311       35.23058
H         19.22383       92.16785       36.21880
H         19.33782       93.56460       35.09712
H         21.58850       94.15959       36.08536
H         21.43761       92.75677       37.21112
N         20.31381       90.35140       32.73838
C         19.48843       89.65036       31.78012
H         18.91382       90.38011       31.17028
H         20.12712       89.04618       31.10168
H         18.78527       88.97269       32.30885
H         21.33592       90.21955       32.69529
Ca        19.23843      100.70498       31.58860
O         17.80308       98.07290       31.75761
H         18.33624       97.29497       31.45748
H         16.88108       97.87387       31.45778
O         17.08695      102.16843       33.67584
H         17.03114      101.92729       34.63462
H         16.32158      102.77891       33.52854
O         18.68356       99.48776       34.44096
H         19.15444      100.19426       34.95030
H         19.32760       98.73674       34.40376
O         20.34170      102.50488       33.65711
H         21.24444      102.10116       33.60724
H         20.47157      103.34895       34.15669
O         15.91091      100.57996       31.11514
H         15.66296       99.87348       30.46720
H         15.09559      100.71304       31.66078

Ca 1.0



