%chk=apoCaM-CA-Ng.loop2.water4.frame707.chk
%nprocshared=20
%mem=10GB
%nosave
#b3lyp/svp scf=(tight,noincore,xqc) Test 
#IOP(5/87=12) Density=Current Pop=(MK,readradii) iop(6/33=2) iop(6/42=6)

apoCaM-CA-Ng.loop2.water4.frame707 

   -2  1 
C        103.71259      102.18030      -17.00617
C        105.14349      102.32602      -17.43701
O        105.44699      103.27245      -18.14942
H        103.06791      102.07392      -17.90531
H        103.56809      101.28455      -16.36655
H        103.39664      103.08036      -16.43974
N        106.07798      101.39992      -17.07782
C        107.45528      101.46093      -17.55255
C        108.18972      102.64130      -16.92855
O        108.43817      102.62307      -15.73071
C        108.17504      100.12791      -17.25025
C        109.54346      100.05107      -17.87159
O        110.51079      100.91412      -17.50760
O        109.78868       99.18923      -18.70083
H        105.77672      100.59151      -16.51112
H        107.41711      101.56330      -18.66078
H        107.55664       99.29977      -17.66433
H        108.25593       99.97218      -16.15226
N        108.55441      103.71106      -17.69376
C        109.30295      104.86527      -17.18958
C        108.61956      105.48867      -15.98485
O        107.40062      105.59104      -16.01601
C        109.42269      105.92801      -18.28742
H        108.27662      103.70545      -18.68760
H        110.31866      104.51684      -16.92724
H        110.01240      106.79496      -17.91950
H        109.93333      105.50536      -19.17778
H        108.41427      106.28685      -18.59106
N        109.28004      105.94162      -14.87431
C        110.73037      106.06943      -14.68275
C        111.21436      105.17113      -13.54935
O        110.44191      104.34751      -13.07991
C        111.05896      107.56193      -14.41071
C        110.53187      108.11762      -13.10665
O        109.83190      107.35530      -12.24468
O        110.76228      109.28018      -12.81692
H        108.68577      106.28649      -14.10661
H        111.29791      105.80076      -15.59229
H        110.65561      108.17038      -15.24845
H        112.15926      107.70561      -14.41444
N        112.46530      105.31041      -13.01089
C        112.88744      104.54682      -11.84813
C        113.15953      103.09771      -12.18491
O        113.19201      102.75876      -13.35924
H        113.10497      106.03546      -13.36252
H        112.08625      104.63393      -11.08305
H        113.81925      104.97552      -11.42046
N        113.33247      102.14543      -11.22218
C        113.17301      102.38110       -9.78691
C        111.78443      101.92590       -9.36376
O        111.06028      101.39815      -10.19991
C        114.30481      101.70409       -8.96869
C        114.32330      100.18896       -9.04158
N        114.13463       99.44113       -7.92803
O        114.53336       99.62903      -10.10627
H        113.43669      101.17467      -11.55040
H        113.23337      103.46544       -9.56451
H        114.19136      102.00888       -7.90640
H        115.28994      102.08941       -9.31015
H        113.96555       99.88160       -7.01236
H        114.15788       98.41142       -7.98117
N        111.33276      102.10439       -8.08785
C        110.01840      101.64402       -7.65644
C        109.14443      102.69556       -6.99765
O        108.04203      102.33021       -6.61513
H        111.95857      102.53019       -7.38738
H        110.16879      100.83292       -6.91371
H        109.44286      101.21516       -8.50462
N        109.54257      103.98452       -6.77238
C        108.70092      104.92130       -6.01476
C        107.40760      105.26813       -6.75842
O        107.24533      104.87180       -7.90487
C        109.49715      106.18374       -5.59067
C        110.66587      105.81663       -4.66060
O        109.97952      106.85531       -6.72092
H        110.48116      104.28061       -7.07518
H        108.39854      104.41363       -5.07189
H        108.81534      106.85497       -5.02127
H        110.30471      107.74203       -6.41167
H        110.28626      105.28922       -3.75964
H        111.40526      105.16484       -5.17026
H        111.19015      106.73690       -4.32673
N        106.41750      105.97314       -6.12746
C        105.10585      106.25388       -6.71422
C        104.91330      107.75300       -6.88816
O        105.01457      108.50085       -5.92559
C        103.96386      105.63622       -5.84426
C        102.56548      106.06568       -6.38333
C        104.10140      104.10094       -5.82126
C        101.37560      105.51522       -5.59682
H        106.58112      106.29678       -5.16206
H        105.02711      105.78347       -7.71515
H        104.05918      106.01465       -4.80210
H        102.45485      105.76647       -7.44468
H        102.48307      107.17215       -6.32893
H        105.09457      103.79924       -5.42941
H        103.34416      103.64091       -5.15462
H        103.97837      103.68311       -6.84423
H        100.43735      105.94378       -6.01095
H        101.30542      104.41299       -5.69102
H        101.45266      105.79861       -4.52612
N        104.56540      108.23431       -8.11578
C        104.31163      109.62307       -8.45009
C        102.88612      109.84964       -8.94988
O        102.58525      111.00292       -9.22942
C        105.25612      110.01310       -9.59977
C        106.70183      109.90615       -9.23220
O        107.45979      108.91679       -9.74486
O        107.20337      110.72433       -8.47787
H        104.47712      107.57520       -8.88859
H        104.47588      110.27758       -7.56490
H        105.06521      111.04931       -9.95586
H        105.05107      109.32673      -10.45121
N        101.95118      108.85196       -9.09521
C        100.60444      109.14274       -9.58751
C        100.11400      108.08587      -10.59451
O         99.10261      107.44920      -10.33398
C         99.65738      109.28596       -8.37234
C         98.43357      110.10042       -8.72006
C         98.57980      111.47704       -8.98095
C         97.15381      109.52695       -8.76888
C         97.46792      112.26458       -9.28315
C         96.04224      110.31884       -9.08499
C         96.19921      111.68569       -9.33834
H        102.16531      107.88880       -8.80188
H        100.61458      110.12086      -10.11234
H        100.16602      109.83847       -7.55163
H         99.41181      108.27815       -7.97068
H         99.55680      111.94398       -8.93512
H         97.01728      108.47136       -8.57323
H         97.59174      113.32382       -9.47162
H         95.05688      109.87491       -9.13126
H         95.33883      112.29820       -9.57516
N        100.76217      107.83886      -11.77658
C        100.34384      106.84428      -12.76664
C        100.13640      105.45506      -12.19194
O         99.13451      104.82014      -12.49023
C        101.52233      106.80909      -13.75037
C        101.99359      108.24133      -13.71643
C        101.94143      108.55078      -12.22155
H         99.42155      107.20365      -13.27700
H        102.35787      106.20133      -13.33254
H        101.26712      106.40519      -14.75401
H        102.97657      108.43128      -14.19614
H        101.21740      108.85346      -14.23127
H        102.82415      108.14920      -11.67641
H        101.86561      109.65110      -12.09511
N        101.06470      104.93737      -11.34259
C        101.01168      103.60340      -10.75964
C         99.68483      103.38287      -10.05932
O         99.00720      102.41342      -10.37251
C        102.17594      103.31510       -9.76611
C        103.61128      103.39492      -10.35118
C        104.23445      104.76756      -10.35072
O        105.49642      104.94377      -10.78762
O        103.65275      105.70874       -9.85171
H        101.83597      105.55474      -11.10605
H        101.10234      102.85792      -11.58127
H        102.03131      102.25742       -9.45333
H        102.10440      103.92693       -8.84196
H        103.63343      102.93812      -11.36264
H        104.27682      102.79793       -9.69084
N         99.22650      104.26741       -9.13195
C         97.94046      104.09937       -8.48969
H         97.13688      104.04330       -9.25653
H         97.93719      103.16800       -7.88528
H         97.73064      104.96344       -7.82473
H         99.78709      105.10164       -8.90122
Ca       106.57094      106.89710      -10.31319
O        107.29669      104.46171      -12.83540
H        106.63373      104.59198      -13.55882
H        107.90160      103.75735      -13.17578
O        106.52582      108.02701      -13.12113
H        106.46719      108.86009      -12.58911
H        105.77426      108.08823      -13.76243
O        109.26968      104.55281      -10.21865
H        110.00281      104.77931       -9.59359
H        109.58441      103.73619      -10.68039
O        110.08767      107.55623       -9.44271
H        110.83368      108.05580       -9.85764
H        109.66712      108.21274       -8.83443

Ca 1.0



