%chk=apoCaM-CA-Ng.loop4.water2.frame194.chk
%nprocshared=20
%mem=10GB
%nosave
#b3lyp/svp scf=(tight,noincore,xqc) Test 
#IOP(5/87=12) Density=Current Pop=(MK,readradii) iop(6/33=2) iop(6/42=6)

apoCaM-CA-Ng.loop4.water2.frame194 

   -3  1 
C        -14.33117       37.49354       28.97744
C        -15.68362       37.82118       29.53072
O        -16.63943       37.71977       28.78494
H        -13.53936       37.59413       29.74644
H        -14.33816       36.44370       28.60994
H        -14.10455       38.16792       28.12568
N        -15.85082       38.17821       30.83790
C        -17.15220       38.40135       31.46176
C        -18.00866       37.15768       31.38013
O        -19.05996       37.18476       30.77420
C        -17.83462       39.75108       31.08690
C        -17.90316       40.29601       29.66925
O        -18.58389       39.73554       28.64597
O        -17.37995       41.37927       29.45886
H        -15.01957       38.21916       31.44630
H        -16.99506       38.51908       32.55937
H        -17.25520       40.51768       31.65147
H        -18.85504       39.76195       31.52861
N        -17.59426       36.04071       32.05134
C        -18.24996       34.73368       32.15062
C        -19.61277       34.82923       32.83966
O        -19.70524       34.43809       33.99526
C        -18.25895       33.96798       30.79952
C        -18.71581       32.49159       30.95889
C        -16.87775       34.02706       30.11620
C        -17.83435       31.62398       31.87212
H        -16.70492       36.12226       32.56987
H        -17.59210       34.15483       32.83395
H        -18.96907       34.47164       30.11312
H        -18.72245       32.02112       29.95203
H        -19.75334       32.46562       31.35366
H        -16.08185       33.60351       30.76165
H        -16.89650       33.47312       29.15517
H        -16.60398       35.07578       29.88291
H        -16.78744       31.58705       31.50899
H        -17.84322       31.98562       32.91892
H        -18.22545       30.58596       31.88595
N        -20.70047       35.37364       32.22049
C        -21.92897       35.71150       32.92477
C        -22.84152       34.49257       33.11981
O        -23.10785       34.17861       34.27102
C        -22.57463       36.96149       32.26858
C        -23.75853       37.47100       33.03744
O        -23.61237       37.86513       34.31697
O        -24.84932       37.56338       32.49781
H        -20.62728       35.66556       31.24154
H        -21.64203       36.08385       33.93575
H        -22.85298       36.79719       31.21593
H        -21.81652       37.77499       32.24494
N        -23.37120       33.73684       32.10754
C        -23.13333       34.00240       30.70138
C        -23.86590       33.08413       29.73871
O        -24.47901       32.12298       30.18072
H        -23.97816       32.94643       32.37426
H        -22.04665       33.91768       30.50868
H        -23.50651       34.99677       30.50221
N        -23.85119       33.27974       28.37943
C        -23.22248       34.38853       27.64973
C        -21.75313       34.48936       28.02288
O        -21.34551       35.49426       28.58691
C        -24.03377       35.70068       27.82001
C        -23.60342       36.77750       26.85496
O        -22.36246       37.29664       26.90356
O        -24.39378       37.20207       26.02776
H        -24.32616       32.56957       27.79967
H        -23.29680       34.16771       26.56159
H        -23.98058       36.11963       28.83688
H        -25.10050       35.46325       27.61261
N        -20.88917       33.45643       27.83040
C        -21.20919       32.22050       27.14539
C        -21.26386       31.07960       28.11548
O        -21.12855       31.28277       29.31366
H        -19.93817       33.53503       28.21340
H        -20.42767       32.03491       26.37721
H        -22.17888       32.25655       26.61720
N        -21.45647       29.82360       27.64207
C        -21.47120       28.64647       28.49509
C        -20.18444       27.84697       28.33735
O        -20.01643       26.87416       29.06047
C        -22.80647       27.87930       28.33463
C        -23.28621       27.52410       26.91342
C        -22.44859       26.49908       26.20218
N        -22.97950       25.30634       25.84553
O        -21.29298       26.75234       25.91424
H        -21.53044       29.69398       26.62150
H        -21.44267       28.94776       29.56626
H        -23.59156       28.55651       28.74065
H        -22.79893       26.97061       28.97432
H        -23.36500       28.43688       26.28676
H        -24.31880       27.12642       27.01755
H        -23.95773       25.07258       26.06662
H        -22.41494       24.61133       25.33866
N        -19.17763       28.27603       27.51357
C        -17.82525       27.73019       27.52411
C        -17.38997       27.16695       26.17650
O        -16.27769       26.66283       26.11943
C        -16.82279       28.81416       28.03586
C        -17.06546       29.11882       29.51965
C        -16.87157       30.12712       27.23032
H        -19.33279       29.08870       26.90411
H        -17.75880       26.87028       28.22776
H        -15.79209       28.40266       27.96154
H        -16.31509       29.85168       29.88508
H        -18.08294       29.53309       29.67808
H        -16.95738       28.19359       30.12495
H        -16.08976       30.82579       27.59766
H        -16.69371       29.93671       26.15210
H        -17.84656       30.64578       27.35190
N        -18.20174       27.15116       25.07478
C        -17.81822       26.48501       23.82819
C        -17.86385       27.40350       22.60862
O        -17.55498       26.92464       21.52439
C        -18.76559       25.28860       23.57801
C        -18.86455       24.33819       24.74887
N        -17.76858       23.74547       25.27337
O        -19.96069       24.09524       25.22813
H        -19.14324       27.55592       25.13052
H        -16.78292       26.09068       23.90181
H        -18.40595       24.72146       22.69231
H        -19.78646       25.66876       23.35088
H        -16.82987       23.93660       24.89834
H        -17.86263       23.09929       26.07159
N        -18.27290       28.70264       22.67845
C        -18.57315       29.50459       21.49258
C        -18.48225       30.98493       21.80480
O        -19.10808       31.41289       22.76334
C        -20.02784       29.22611       21.04931
C        -20.20968       27.89775       20.36423
C        -19.65933       27.69350       19.08689
C        -20.95905       26.87308       20.96147
C        -19.86598       26.48756       18.41305
C        -21.15151       25.66015       20.29191
C        -20.61446       25.46579       19.01397
O        -20.83044       24.30045       18.37120
H        -18.56376       29.08266       23.59074
H        -17.87668       29.27724       20.65501
H        -20.36421       29.99057       20.31544
H        -20.68845       29.31538       21.94080
H        -19.09039       28.47831       18.60287
H        -21.39205       27.01170       21.94394
H        -19.45106       26.35257       17.42177
H        -21.72841       24.87453       20.76258
H        -20.49604       24.13656       17.47761
N        -17.82736       31.83122       20.94582
C        -17.81499       33.29761       21.00975
C        -16.77921       33.85055       21.97253
O        -15.96315       34.66087       21.55395
C        -19.20353       33.91914       21.30702
C        -20.28487       33.47395       20.31357
C        -21.60542       34.10234       20.65568
O        -22.18342       33.85370       21.84731
O        -22.16635       34.83173       19.85403
H        -17.41067       31.41593       20.09808
H        -17.52419       33.66864       19.99944
H        -19.11097       35.02671       21.25128
H        -19.52562       33.68439       22.34176
H        -20.41241       32.37388       20.34613
H        -19.98039       33.76308       19.28412
N        -16.78500       33.50704       23.28725
C        -15.94505       34.14302       24.29799
C        -14.45137       33.91796       24.08696
O        -13.67705       34.53274       24.80893
C        -16.33124       33.62233       25.70473
C        -17.81506       33.80584       26.09027
C        -18.20815       35.22919       26.34953
O        -18.13978       36.07765       25.47488
O        -18.68861       35.55187       27.56336
H        -17.46115       32.80534       23.59020
H        -16.12824       35.23746       24.24862
H        -15.70167       34.10051       26.48752
H        -16.11717       32.53190       25.71550
H        -17.97774       33.23430       27.02559
H        -18.50410       33.37662       25.33855
N        -13.95715       33.05982       23.14935
C        -12.53316       32.87235       22.96777
H        -12.07354       32.50740       23.91122
H        -12.34585       32.12465       22.16843
H        -12.05878       33.83329       22.67400
H        -14.59003       32.50984       22.55272
Ca       -19.21617       37.64093       28.16152
O        -21.76764       39.06940       29.33358
H        -22.72890       39.14684       29.10896
H        -21.59500       39.82123       29.95406
O        -20.06177       39.24527       25.85325
H        -19.45677       39.29074       25.07108
H        -20.84110       39.80177       25.60304

Ca 1.0



