%chk=apoCaM-CA-Ng.loop1.water3.frame1152.chk
%nprocshared=20
%mem=10GB
%nosave
#b3lyp/svp scf=(tight,noincore,xqc) Test 
#IOP(5/87=12) Density=Current Pop=(MK,readradii) iop(6/33=2) iop(6/42=6)

apoCaM-CA-Ng.loop1.water3.frame1152 

   0  1 
C         68.54265       20.91705      110.73866
C         70.02356       20.70269      110.70319
O         70.76069       21.64533      110.95126
H         68.10997       20.68941      109.74207
H         68.08929       20.25282      111.50236
H         68.30771       21.97309      110.99508
N         70.53273       19.48017      110.37493
C         71.96364       19.21282      110.28576
C         72.35113       18.97668      108.84116
O         73.00148       17.99378      108.51587
C         72.37180       18.08663      111.26162
C         71.59533       16.80650      111.07978
O         71.65442       16.17923      110.03491
O         70.83384       16.33984      112.08794
H         69.87553       18.71981      110.14204
H         72.53893       20.10748      110.58154
H         72.19022       18.45343      112.29521
H         73.46005       17.88048      111.16486
N         71.97554       19.89420      107.90872
C         72.32858       19.78691      106.50374
C         73.79234       20.14707      106.29013
O         74.48811       19.32009      105.71425
C         71.33418       20.54798      105.59627
C         69.90397       20.01535      105.84264
C         68.89008       20.47700      104.79437
C         67.49982       19.90784      105.12929
N         66.52887       20.22101      104.08315
H         71.38743       20.68461      108.20942
H         72.19131       18.72638      106.18720
H         71.62114       20.33767      104.54196
H         71.35907       21.64638      105.74690
H         69.56189       20.32807      106.85310
H         69.91904       18.90308      105.80854
H         69.21326       20.09686      103.80036
H         68.84224       21.58652      104.75932
H         67.15295       20.33107      106.09898
H         67.56048       18.80122      105.23711
H         65.59508       19.84092      104.36165
H         66.45304       21.25548      103.95463
H         66.81905       19.77000      103.18495
N         74.40092       21.27993      106.76099
C         73.77837       22.34353      107.55241
C         74.04660       22.11935      109.04193
O         74.66584       21.13260      109.40451
C         74.28633       23.72207      107.06134
C         75.75384       23.90489      107.33179
O         76.19533       23.88140      108.60423
O         76.53767       24.04877      106.41083
H         75.42106       21.34404      106.62386
H         72.68466       22.34170      107.41123
H         73.74078       24.54307      107.57246
H         74.08062       23.81448      105.97208
N         73.58153       23.01163      109.96672
C         73.72128       22.84121      111.40617
C         75.13981       22.81565      111.92795
O         76.09089       22.91371      111.16282
H         73.05817       23.83523      109.64088
H         73.22656       21.90217      111.72046
H         73.19803       23.68437      111.90850
N         75.33374       22.71519      113.27050
C         76.63262       22.69246      113.94690
C         76.45395       22.95492      115.44650
O         75.44185       22.53815      116.00208
C         77.35775       21.33245      113.78007
C         77.82982       21.05870      112.38456
O         78.72344       21.88216      111.80213
O         77.43672       20.07119      111.78570
H         74.47646       22.71081      113.84895
H         77.25363       23.50518      113.52572
H         76.68828       20.51659      114.13134
H         78.26712       21.30974      114.41546
N         77.40021       23.56535      116.21785
C         78.68982       24.02723      115.72775
C         78.60074       25.23218      114.82050
O         77.54786       25.83427      114.67745
H         77.22596       23.64952      117.23096
H         79.19486       23.19161      115.20578
H         79.33418       24.31454      116.58619
N         79.72486       25.61665      114.15383
C         79.80007       26.76132      113.24989
C         78.79517       26.64218      112.11743
O         78.60764       25.55650      111.58844
C         81.22313       26.89287      112.64763
C         82.28724       27.16364      113.71892
O         81.24173       27.95581      111.72679
H         80.56667       25.04011      114.29245
H         79.58742       27.69272      113.82054
H         81.46391       25.93569      112.12774
H         81.89722       27.71868      111.01987
H         83.28372       27.25057      113.23690
H         82.06438       28.11388      114.24887
H         82.34571       26.34568      114.46439
N         78.16316       27.76533      111.66278
C         77.20582       27.82511      110.55964
C         77.84245       27.44333      109.22153
O         78.85148       26.75439      109.18203
C         75.89789       27.03787      110.90974
C         75.25379       27.55281      112.22953
C         74.85403       27.03904      109.77701
C         74.78955       29.01683      112.20393
H         78.38226       28.66129      112.12526
H         76.93870       28.89636      110.43888
H         76.16412       25.97186      111.07537
H         75.97701       27.43719      113.06390
H         74.37372       26.91738      112.47070
H         74.54409       28.06878      109.50694
H         75.25554       26.53921      108.87283
H         73.95470       26.46448      110.08680
H         74.02177       29.18487      111.42166
H         74.33540       29.27574      113.18313
H         75.63838       29.71081      112.04013
N         77.30428       27.93190      108.06647
C         77.79385       27.61008      106.72605
C         79.23781       28.05618      106.46855
O         79.79296       27.63975      105.46106
C         76.80743       28.21780      105.67952
C         77.10025       27.86628      104.21568
O         76.70320       29.61352      105.82834
H         76.47520       28.53966      108.14922
H         77.76437       26.50341      106.62815
H         75.80591       27.78723      105.90350
H         77.59206       30.00859      105.63328
H         76.28936       28.27115      103.57288
H         78.05211       28.31840      103.87146
H         77.13954       26.76615      104.08271
N         79.90777       28.91061      107.29684
C         81.27087       29.36271      107.01389
C         82.23927       28.19230      107.08204
O         82.36896       27.59969      108.14439
C         81.68750       30.47986      108.00540
C         83.11065       30.98533      107.74846
O         80.80923       31.57061      107.87548
H         79.42229       29.28941      108.12181
H         81.28639       29.80809      105.99333
H         81.66451       30.08398      109.05002
H         80.12740       31.49459      108.59271
H         83.85058       30.17156      107.89363
H         83.20233       31.38160      106.71462
H         83.35540       31.79684      108.46590
N         82.94871       27.80318      105.97693
C         83.89457       26.68889      105.97122
C         83.18123       25.42220      106.39737
O         83.44667       24.89630      107.47047
C         85.15280       26.99269      106.81666
C         85.94497       28.18132      106.24463
C         87.29014       28.34759      106.96349
C         88.09206       29.51909      106.37889
N         89.40437       29.62463      107.01680
H         82.79744       28.30248      105.08749
H         84.26602       26.52122      104.93476
H         85.80738       26.09363      106.77041
H         84.89690       27.18087      107.88096
H         85.34492       29.11156      106.33323
H         86.15184       27.99719      105.16702
H         87.87952       27.41240      106.83759
H         87.12055       28.52014      108.04846
H         87.52825       30.46635      106.53045
H         88.23484       29.36702      105.28546
H         89.29657       29.77146      108.04648
H         89.95829       28.75453      106.84084
H         89.91996       30.43795      106.60919
N         82.24025       24.88515      105.57315
C         81.39809       23.75474      105.94059
C         79.93300       24.12616      105.76428
O         79.26175       24.15926      106.78006
C         81.78531       22.44616      105.21748
C         83.15635       21.93356      105.68413
C         83.50769       20.64177      105.00474
O         83.68295       19.52149      105.73165
O         83.64396       20.60180      103.79230
H         82.10966       25.32937      104.65514
H         81.53164       23.53112      107.02453
H         81.79303       22.55581      104.11984
H         81.03365       21.66749      105.47824
H         83.12318       21.76375      106.78379
H         83.94794       22.68136      105.46702
N         79.30915       24.42645      104.58322
C         79.88608       24.46245      103.25582
H         80.95920       24.24569      103.21826
H         79.36228       23.72286      102.61456
H         79.73728       25.47415      102.82494
H         78.30458       24.65388      104.62456
Ca        78.34003       23.80914      109.29190
O         77.46193       20.76495      108.60748
H         76.91127       20.11845      108.09954
H         78.00584       20.19911      109.20963
O         80.58302       21.42440      108.62820
H         80.56407       21.14559      109.57808
H         80.26871       20.62960      108.12848
O         81.24238       24.10976      110.13328
H         82.20655       23.89651      110.19752
H         80.85018       23.73810      110.96350

Ca 1.0



