%chk=apoCaM-CA-Ng.loop4.water6.frame876.chk
%nprocshared=20
%mem=10GB
%nosave
#b3lyp/svp scf=(tight,noincore,xqc) Test 
#IOP(5/87=12) Density=Current Pop=(MK,readradii) iop(6/33=2) iop(6/42=6)

apoCaM-CA-Ng.loop4.water6.frame876 

   -3  1 
C         41.51834       26.09163        9.88413
C         42.24085       27.38845        9.65742
O         42.66494       27.64041        8.53989
H         40.63215       26.03975        9.21753
H         42.19067       25.23887        9.66329
H         41.17329       25.99717       10.93504
N         42.39586       28.27828       10.67852
C         43.05342       29.57463       10.55326
C         42.34349       30.41632        9.50107
O         42.97210       30.91112        8.57712
C         44.56595       29.38445       10.29396
C         45.32453       30.68147       10.33718
O         45.95908       31.05538        9.36365
O         45.32276       31.42835       11.45782
H         42.00026       28.04125       11.60127
H         42.94436       30.09451       11.53135
H         44.72236       28.89360        9.31127
H         44.98645       28.72268       11.08192
N         40.99218       30.56573        9.56951
C         40.21237       31.29663        8.56932
C         40.48287       32.80070        8.64505
O         40.87880       33.26345        9.70601
C         38.68103       31.00645        8.73366
C         38.13428       31.46012       10.11901
C         38.40151       29.51621        8.45259
C         36.61849       31.32029       10.25643
H         40.50922       30.07288       10.33226
H         40.52246       30.91906        7.57198
H         38.12842       31.58032        7.96540
H         38.36869       32.53519       10.26602
H         38.60373       30.89175       10.94700
H         37.31419       29.30377        8.45053
H         38.78192       29.24401        7.44452
H         38.88949       28.85914        9.20194
H         36.10485       31.90677        9.46600
H         36.30237       30.25954       10.19951
H         36.30500       31.71002       11.24811
N         40.24965       33.66293        7.60363
C         39.89638       33.25733        6.24017
C         41.05565       32.56387        5.51993
O         40.83905       32.02170        4.44529
C         39.36127       34.45617        5.42208
C         40.33891       35.58284        5.19628
O         41.60047       35.52825        5.66584
O         39.97662       36.56929        4.57563
H         40.35826       34.67068        7.79786
H         39.05254       32.54570        6.29404
H         38.47626       34.86832        5.95590
H         39.01598       34.09058        4.43047
N         42.30369       32.51592        6.06888
C         43.41435       31.75585        5.52582
C         43.97092       32.26184        4.21662
O         43.45145       33.19387        3.61881
H         42.48445       32.98999        6.96369
H         43.12717       30.68703        5.42878
H         44.24919       31.81774        6.25855
N         45.11542       31.68147        3.75788
C         45.85435       32.11621        2.57638
C         45.18330       31.75783        1.24927
O         45.71846       32.14769        0.22039
C         47.32145       31.61362        2.66675
C         47.48617       30.12481        2.84408
O         48.05032       29.64514        3.96939
O         47.13694       29.34573        1.97821
H         45.53178       30.94914        4.35328
H         45.93258       33.22636        2.60582
H         47.77524       32.09673        3.55991
H         47.90193       31.95370        1.78416
N         44.00636       31.06678        1.17261
C         43.32362       30.80214       -0.09050
C         44.01361       29.79519       -0.99703
O         43.48171       29.53867       -2.06684
H         43.53138       30.76566        2.03444
H         43.17976       31.76215       -0.63315
H         42.31647       30.38675        0.13045
N         45.16253       29.15449       -0.63096
C         45.86194       28.13728       -1.41604
C         45.08160       26.83423       -1.54744
O         45.60190       25.92180       -2.17730
C         46.31307       28.68083       -2.79555
C         47.20234       29.93177       -2.68887
C         48.46362       29.66596       -1.90346
N         48.72960       30.35701       -0.77123
O         49.25109       28.81631       -2.29267
H         45.58023       29.38518        0.26983
H         46.78369       27.85622       -0.85957
H         45.43305       28.92213       -3.42630
H         46.88739       27.89097       -3.32870
H         46.61970       30.75467       -2.22252
H         47.48761       30.26034       -3.71132
H         48.07857       31.07679       -0.42977
H         49.58768       30.17111       -0.23137
N         43.86631       26.64194       -0.95329
C         43.11784       25.39195       -1.03511
C         42.88230       24.76695        0.33811
O         42.29552       23.69633        0.37747
C         41.74742       25.62889       -1.74231
C         40.82797       26.59389       -0.96537
C         41.94311       26.14127       -3.17496
H         43.44447       27.40302       -0.40833
H         43.68251       24.64100       -1.63093
H         41.22143       24.65065       -1.81183
H         39.84607       26.67938       -1.47684
H         40.63672       26.21711        0.06061
H         41.26403       27.61184       -0.89624
H         42.55502       25.42189       -3.75852
H         40.95832       26.24723       -3.67895
H         42.44773       27.13045       -3.17909
N         43.23573       25.39786        1.50170
C         42.81136       24.91793        2.81341
C         43.98955       24.79806        3.77684
O         45.10278       25.16972        3.43883
C         41.76118       25.93999        3.32235
C         41.02691       25.53022        4.57219
N         41.09556       26.28281        5.69525
O         40.35725       24.50791        4.56809
H         43.71472       26.30709        1.47412
H         42.32708       23.92199        2.72533
H         40.98636       26.07184        2.53660
H         42.26118       26.92333        3.46745
H         41.65480       27.14766        5.72064
H         40.59080       25.99615        6.54686
N         43.77180       24.31797        5.03422
C         44.74425       24.32658        6.11546
C         44.85247       22.93336        6.69356
O         43.82608       22.34085        6.99561
C         44.23330       25.33521        7.15572
C         45.17298       25.56797        8.31135
C         45.13825       24.74181        9.44655
C         46.06229       26.65473        8.27947
C         45.97480       25.00778       10.53611
C         46.90399       26.91232        9.36350
C         46.85955       26.09664       10.49763
O         47.66422       26.37341       11.54331
H         42.83080       23.98620        5.27717
H         45.73850       24.68719        5.77023
H         43.22382       25.06254        7.53119
H         44.10529       26.30218        6.61947
H         44.45073       23.90682        9.49770
H         46.10170       27.30710        7.41567
H         45.92859       24.37324       11.41211
H         47.58235       27.75553        9.32521
H         47.65437       25.84663       12.35486
N         46.07005       22.35898        6.90824
C         46.21975       21.00789        7.43144
C         46.73450       21.08293        8.85798
O         47.86463       21.51515        9.03683
C         47.18826       20.22669        6.51729
C         47.42257       18.77830        6.96610
C         48.41679       18.10661        6.06114
O         49.66995       18.59152        5.95630
O         48.09926       17.11550        5.42401
H         46.92155       22.91182        6.72577
H         45.24650       20.49323        7.40900
H         48.16549       20.76040        6.49717
H         46.78031       20.22161        5.48234
H         46.45732       18.22767        6.95090
H         47.82965       18.75402        7.99924
N         45.99043       20.73331        9.95266
C         44.58515       20.32019        9.94630
C         44.34973       18.98700        9.25659
O         45.00922       18.00878        9.58018
C         44.00306       20.28933       11.38163
C         44.61114       19.24072       12.33026
C         43.98610       19.35644       13.68891
O         42.66120       19.16765       13.84096
O         44.67360       19.62632       14.66025
H         46.44675       20.85969       10.86912
H         43.99760       21.11161        9.43094
H         42.90756       20.10369       11.30769
H         44.14290       21.29966       11.82697
H         45.70728       19.39039       12.41720
H         44.42241       18.21367       11.95722
N         43.36972       18.87314        8.31712
C         43.04890       17.61429        7.68160
H         42.19662       17.75135        6.98176
H         43.92449       17.23737        7.11412
H         42.75163       16.86851        8.45047
H         42.80546       19.69928        8.06612
Ca        41.71902       19.38007       15.88123
O         41.95019       17.69008       18.86668
H         41.81995       16.72809       19.06166
H         42.86040       17.88941       19.20171
O         41.30278       16.27051       15.55878
H         41.97165       15.56530       15.37076
H         40.71660       16.27634       14.76080
O         44.25738       17.20851       16.60232
H         45.12409       17.67150       16.48205
H         44.39520       16.31677       16.19516
O         43.92193       20.28614       17.98492
H         43.94942       21.15854       17.51747
H         44.87060       20.01298       18.05949
O         39.11318       18.26649       17.05306
H         38.76954       17.42290       16.66503
H         38.67513       18.33094       17.93851
O         40.80557       20.97845       18.37942
H         40.71629       21.16710       19.34713
H         41.00298       21.85861       17.97080

Ca 1.0



