%chk=apoCaM-CA-Ng.loop1.water3.frame151.chk
%nprocshared=20
%mem=10GB
%nosave
#b3lyp/svp scf=(tight,noincore,xqc) Test 
#IOP(5/87=12) Density=Current Pop=(MK,readradii) iop(6/33=2) iop(6/42=6)

apoCaM-CA-Ng.loop1.water3.frame151 

   0  1 
C         75.44217       56.56624       49.52560
C         74.71189       55.59686       48.64318
O         74.90367       54.39972       48.80089
H         76.53615       56.45309       49.36906
H         75.16384       57.61621       49.29454
H         75.20161       56.35938       50.58828
N         73.89247       56.04952       47.65282
C         73.22080       55.16731       46.70473
C         73.91835       55.17941       45.35187
O         73.45172       54.49460       44.45150
C         71.71224       55.50026       46.59200
C         71.40983       56.86174       46.01411
O         70.80737       56.95440       44.95634
O         71.75419       57.98339       46.67408
H         73.81787       57.06696       47.51466
H         73.28882       54.11934       47.05655
H         71.23080       55.41705       47.59009
H         71.24559       54.73147       45.93844
N         75.06817       55.89018       45.14958
C         75.79668       55.91926       43.89078
C         77.20673       55.38862       44.08363
O         77.84727       55.81499       45.03524
C         75.89200       57.35761       43.36924
C         74.51689       57.93947       43.03710
C         74.68572       59.23271       42.23025
C         73.34927       59.88636       41.86038
N         72.67027       60.44140       43.03164
H         75.47086       56.44414       45.91857
H         75.26792       55.34390       43.12056
H         76.49330       57.33554       42.44075
H         76.41942       58.01727       44.09394
H         73.96276       58.10295       43.98477
H         73.94641       57.21982       42.40824
H         75.20763       58.96955       41.28239
H         75.31776       59.96212       42.78129
H         72.69239       59.15078       41.34404
H         73.55989       60.71515       41.14936
H         72.40659       59.68945       43.70610
H         73.29117       61.13986       43.50229
H         71.79894       60.92597       42.71877
N         77.83636       54.53938       43.21292
C         77.31411       53.96583       41.97089
C         76.79090       55.03530       41.00988
O         75.61767       54.99627       40.67246
C         76.26900       52.85542       42.25620
C         76.77739       51.83417       43.23282
O         76.10616       51.61690       44.37930
O         77.79083       51.19761       42.99774
H         78.81928       54.30611       43.42869
H         78.15823       53.46414       41.46009
H         76.01786       52.34666       41.29992
H         75.32865       53.26797       42.66544
N         77.55635       56.05311       40.52377
C         78.98604       56.18539       40.74657
C         79.52294       57.53888       40.29057
O         78.74223       58.42483       39.97265
H         77.07585       56.75365       39.93832
H         79.48404       55.34881       40.21726
H         79.22072       56.12108       41.82686
N         80.85743       57.81997       40.29115
C         81.88630       56.81832       40.54619
C         81.96660       55.82354       39.39002
O         81.31955       56.01872       38.36895
C         83.25754       57.49167       40.81657
C         83.82183       58.32885       39.69310
O         84.99273       58.96774       39.87847
O         83.23995       58.44664       38.62626
H         81.14252       58.79023       40.08447
H         81.62131       56.27367       41.47866
H         84.00682       56.71330       41.07357
H         83.14449       58.15086       41.70474
N         82.75419       54.72101       39.49328
C         82.91451       53.74384       38.43024
C         81.63304       53.01511       38.08721
O         81.26348       52.98267       36.92225
H         83.28681       54.57031       40.36314
H         83.64454       52.97758       38.76934
H         83.33724       54.23581       37.52657
N         80.93671       52.35339       39.05317
C         79.79330       51.48081       38.77092
C         78.65656       52.22884       38.08254
O         78.44490       53.40025       38.36291
C         79.28468       50.77462       40.05080
C         80.37597       49.92022       40.72184
O         78.20017       49.94795       39.71569
H         81.27424       52.44488       40.02188
H         80.14039       50.67946       38.08098
H         78.94882       51.55300       40.75997
H         77.84914       49.57385       40.56349
H         79.96743       49.44537       41.63938
H         80.71850       49.12277       40.03018
H         81.25050       50.52280       41.03572
N         77.89705       51.58526       37.14384
C         76.85336       52.22974       36.34319
C         75.46247       51.64819       36.60916
O         74.51944       52.09283       35.96726
C         77.22261       52.14839       34.82626
C         77.15038       50.69699       34.27088
C         78.60561       52.78603       34.59126
C         77.43685       50.59601       32.77102
H         78.09307       50.58986       36.96437
H         76.79004       53.30952       36.60342
H         76.47611       52.75767       34.26850
H         76.12212       50.30659       34.42701
H         77.85873       50.02943       34.80255
H         78.83619       52.86363       33.51018
H         78.62874       53.81677       35.00383
H         79.40298       52.18610       35.07874
H         77.29042       49.54663       32.43821
H         76.74698       51.25019       32.19723
H         78.48651       50.87212       32.54376
N         75.24774       50.68372       37.55028
C         73.94104       50.10169       37.85007
C         73.54524       50.54272       39.24163
O         74.35317       50.40830       40.14931
C         74.00678       48.56248       37.75266
C         74.41695       48.10150       36.35225
O         72.74241       48.01885       38.04390
H         76.03918       50.35264       38.12026
H         73.16513       50.45111       37.13173
H         74.77530       48.17805       38.46665
H         72.79168       47.60974       38.94697
H         74.44580       46.99176       36.31725
H         73.68842       48.46295       35.59505
H         75.42725       48.48196       36.09359
N         72.32981       51.11376       39.48033
C         71.99295       51.73391       40.75959
C         70.88822       51.01367       41.51237
O         70.24664       50.11765       40.98138
C         71.62739       53.23207       40.53219
C         70.39567       53.44844       39.63687
O         72.71483       53.89731       39.94966
H         71.64154       51.14549       38.71384
H         72.87475       51.70202       41.43586
H         71.38178       53.71356       41.50746
H         73.32097       54.13938       40.69470
H         70.18505       54.53608       39.55000
H         70.56157       53.06707       38.60831
H         69.49866       52.95616       40.06683
N         70.61485       51.41796       42.78658
C         69.48950       50.96444       43.59728
C         69.90680       50.47304       44.98704
O         69.02964       50.21081       45.79825
C         68.49085       52.13950       43.68231
C         69.03148       53.39294       44.41031
C         68.10334       54.60721       44.26172
C         68.11658       55.17251       42.82529
N         67.25747       56.34829       42.71316
H         71.20950       52.16149       43.17897
H         68.94865       50.13547       43.08961
H         67.55515       51.81246       44.18664
H         68.23128       52.38186       42.63332
H         70.02283       53.70874       44.03220
H         69.14449       53.14272       45.48742
H         68.47555       55.40572       44.93960
H         67.07247       54.33681       44.57579
H         67.76888       54.41783       42.09139
H         69.15933       55.45690       42.55519
H         67.31580       56.71898       41.73678
H         66.26642       56.08308       42.91566
H         67.57196       57.09168       43.37765
N         71.21607       50.29830       45.33031
C         71.65382       49.88554       46.66582
C         71.42995       51.00557       47.65996
O         71.92673       52.09915       47.43851
C         73.15452       49.52409       46.64100
C         73.37630       48.20029       45.89356
C         74.83207       47.94440       45.65636
O         75.52014       48.78574       44.86131
O         75.37959       46.96126       46.12940
H         71.93851       50.44952       44.61165
H         71.10171       48.97610       46.99384
H         73.54222       49.38933       47.67633
H         73.71937       50.35923       46.16876
H         72.88289       48.21999       44.89991
H         72.92411       47.37541       46.49042
N         70.72199       50.78706       48.80406
C         70.51816       51.79944       49.82253
H         69.43083       51.95381       49.97908
H         70.97237       51.45578       50.77640
H         70.97738       52.77435       49.55346
H         70.32758       49.85166       48.98335
Ca        77.65016       48.41476       44.21083
O         75.68547       48.43331       41.86827
H         75.93556       49.39099       41.88661
H         75.81433       48.15787       40.92617
O         78.71306       46.69844       46.18485
H         79.61114       46.38195       45.91421
H         78.65779       46.51196       47.15478
O         77.73334       50.42198       46.65778
H         77.01885       50.39843       47.34284
H         77.92442       51.38523       46.53022

Ca 1.0



