%chk=apoCaM-CA-Ng.loop3.water7.frame1169.chk
%nprocshared=20
%mem=10GB
%nosave
#b3lyp/svp scf=(tight,noincore,xqc) Test 
#IOP(5/87=12) Density=Current Pop=(MK,readradii) iop(6/33=2) iop(6/42=6)

apoCaM-CA-Ng.loop3.water7.frame1169 

   0  1 
C         84.69004       58.14387       83.14011
C         85.80627       58.43503       82.18156
O         86.31398       59.54597       82.17686
H         83.77732       57.85437       82.58052
H         84.98903       57.30652       83.80731
H         84.46736       59.03155       83.77036
N         86.26650       57.44954       81.36297
C         87.41497       57.60364       80.47469
C         87.11550       57.22844       79.02578
O         88.06072       57.20491       78.24846
C         88.60376       56.78193       81.03307
C         88.40747       55.28851       81.14229
O         87.36286       54.74926       80.81593
O         89.41409       54.53277       81.61911
H         85.81700       56.52459       81.43049
H         87.76798       58.65909       80.46526
H         88.84122       57.16744       82.04820
H         89.49466       56.96483       80.39317
N         85.85153       56.94978       78.57048
C         85.53296       56.54356       77.19368
C         86.18019       57.46053       76.16534
O         86.88311       57.00552       75.27381
C         85.77953       55.02624       76.97940
C         87.20346       54.55686       77.30054
C         87.35044       53.03693       77.24886
C         88.73291       52.63796       77.78930
N         88.88153       51.18691       77.84708
H         85.05422       57.06471       79.21242
H         84.43505       56.66775       77.05358
H         85.50679       54.74352       75.93864
H         85.08758       54.48986       77.66596
H         87.42103       54.83190       78.34234
H         87.94327       55.03911       76.62693
H         87.20943       52.67034       76.20920
H         86.57479       52.57802       77.90123
H         88.85664       53.04606       78.81886
H         89.52942       53.07368       77.14638
H         89.82159       50.95981       78.24489
H         88.14675       50.77814       78.46976
H         88.80485       50.77949       76.88790
N         85.96892       58.79801       76.26649
C         86.53973       59.80936       75.38345
C         87.53714       60.68899       76.13446
O         88.05690       61.61995       75.53460
C         85.39478       60.60212       74.71092
C         84.31205       61.04126       75.69697
O         83.22351       61.62099       75.03951
O         84.78400       61.96480       76.63225
H         85.38376       59.12784       77.04982
H         87.13007       59.34707       74.56059
H         84.89590       59.91041       73.99740
H         85.78914       61.45972       74.12183
N         87.93534       60.38775       77.40811
C         88.99756       61.07768       78.11803
C         90.19824       60.15156       78.24236
O         90.42507       59.39960       77.30388
H         87.53132       59.58246       77.89314
H         88.59027       61.41030       79.09002
H         89.33743       61.97595       77.56152
N         91.10335       60.18235       79.26645
C         91.06581       61.04278       80.44289
C         91.28829       60.20752       81.70036
O         92.27587       59.48827       81.75313
C         92.18023       62.09576       80.34768
C         91.93268       63.03364       79.19348
N         92.81632       63.12869       78.17518
O         90.91887       63.71686       79.17977
H         91.92881       59.56759       79.17475
H         90.12240       61.60211       80.50735
H         93.16587       61.59091       80.24586
H         92.19866       62.70246       81.28038
H         93.67510       62.56036       78.16587
H         92.63618       63.77066       77.38937
N         90.46929       60.26975       82.78770
C         89.29604       61.12295       82.84418
C         88.62323       61.13708       84.19342
O         89.11131       60.53456       85.14350
H         90.72392       59.69427       83.60630
H         88.57185       60.77446       82.07830
H         89.58456       62.17444       82.62809
N         87.45955       61.82377       84.34148
C         86.74711       61.88595       85.61256
C         85.27493       62.21949       85.40520
O         84.87995       62.55242       84.29206
C         87.44397       62.93005       86.52093
C         86.96796       62.89930       87.94830
C         86.27817       63.98898       88.50584
C         87.22618       61.76956       88.74067
C         85.84469       63.94047       89.83499
C         86.79813       61.72588       90.06857
C         86.10239       62.81080       90.62010
O         85.67964       62.77842       91.89963
H         87.06237       62.26864       83.49829
H         86.77189       60.86623       86.05821
H         87.28613       63.93494       86.06812
H         88.54085       62.75367       86.54459
H         86.06758       64.87018       87.91256
H         87.76602       60.92543       88.32962
H         85.30598       64.78068       90.25457
H         87.00906       60.84839       90.66636
H         85.84032       62.01572       92.47370
N         84.37752       62.09335       86.42362
C         82.95356       62.34122       86.22087
C         82.71291       63.79974       85.85246
O         83.54290       64.64529       86.15446
C         82.10782       61.86568       87.44320
C         82.36098       62.73750       88.70139
C         80.60842       61.79590       87.09294
C         81.70408       62.18507       89.96759
H         84.70550       61.74216       87.33492
H         82.66259       61.70421       85.35454
H         82.43058       60.82197       87.65783
H         81.99731       63.77372       88.52710
H         83.44863       62.78682       88.90320
H         80.03176       61.30695       87.90295
H         80.18234       62.80599       86.92623
H         80.45780       61.17918       86.18082
H         81.96161       62.83577       90.82951
H         80.59929       62.16627       89.88079
H         82.07680       61.15940       90.17478
N         81.61884       64.13923       85.11834
C         81.33869       65.50802       84.68327
C         80.25038       65.53039       83.61055
O         79.77494       64.48295       83.20214
C         80.98708       66.39546       85.89701
O         79.83959       65.91464       86.53967
H         80.99676       63.37355       84.82710
H         82.24774       65.92278       84.19456
H         80.82161       67.44570       85.57431
H         81.83981       66.40309       86.61084
H         79.73552       66.46582       87.35930
N         79.83996       66.71394       83.07183
C         78.88361       66.82876       81.97767
C         77.54288       66.18503       82.30466
O         77.05532       65.38416       81.51655
C         79.50114       66.27098       80.68364
H         80.23889       67.59197       83.43172
H         78.69670       67.91208       81.80722
H         78.81413       66.42415       79.82469
H         80.45489       66.79658       80.46725
H         79.71200       65.18496       80.77437
N         76.88012       66.50148       83.45801
C         75.53880       66.01967       83.79660
C         75.40918       64.49769       83.89767
O         74.28923       64.03086       84.05901
C         74.53057       66.57201       82.77357
H         77.32936       67.15520       84.11747
H         75.24879       66.44348       84.78341
H         73.49273       66.30639       83.06734
H         74.60139       67.67992       82.73605
H         74.71266       66.16996       81.75589
N         76.47951       63.65491       83.79584
C         76.33330       62.20368       83.71864
C         75.72217       61.60961       84.98016
O         75.16497       60.52281       84.90500
C         77.70533       61.54980       83.41532
C         77.63307       60.06553       83.01606
C         76.88434       59.87537       81.72498
O         75.77788       59.10934       81.68958
O         77.28051       60.40989       80.70067
H         77.42084       64.04958       83.70770
H         75.65081       62.01156       82.86082
H         78.36176       61.66438       84.30649
H         78.18981       62.09209       82.57324
H         77.16574       59.46714       83.82453
H         78.66639       59.68335       82.87262
N         75.80634       62.24663       86.18182
C         75.24079       61.68143       87.38778
H         74.14214       61.56522       87.27316
H         75.69861       60.69019       87.59450
H         75.44115       62.35102       88.25081
H         76.29877       63.14870       86.25652
Ca        82.91401       63.25336       76.58222
O         80.86136       63.06772       79.22500
H         80.53845       62.28600       79.73963
H         80.03918       63.47904       78.85704
O         82.06269       60.25362       78.12519
H         81.74625       59.91468       77.25026
H         82.60066       59.51133       78.49926
O         84.26136       63.10450       79.45430
H         84.09285       62.56412       80.26646
H         85.18189       62.86191       79.18164
O         81.90433       65.83308       77.51189
H         81.41966       65.82657       78.37426
H         81.30898       66.32724       76.89479
O         79.84341       62.05768       76.29228
H         79.54636       61.71772       75.41112
H         79.39232       61.47103       76.95027
O         81.15422       64.30403       74.28899
H         82.05062       64.16095       73.89340
H         81.15299       65.25599       74.56056
O         84.79833       64.90700       75.06503
H         85.42169       64.63910       75.78641
H         84.20297       65.57582       75.48838

Ca 1.0



