%chk=apoCaM-CA-Ng.loop2.water4.frame1477.chk
%nprocshared=20
%mem=10GB
%nosave
#b3lyp/svp scf=(tight,noincore,xqc) Test 
#IOP(5/87=12) Density=Current Pop=(MK,readradii) iop(6/33=2) iop(6/42=6)

apoCaM-CA-Ng.loop2.water4.frame1477 

   -2  1 
C         39.89024       63.40999       79.62768
C         40.68556       64.64625       79.92774
O         41.35234       64.67660       80.95188
H         38.81195       63.67308       79.57245
H         40.22125       62.96291       78.66921
H         40.02256       62.65997       80.43634
N         40.64845       65.75017       79.13176
C         39.86220       65.87690       77.90713
C         38.53098       66.58619       78.16143
O         37.77650       66.75641       77.21321
C         40.71222       66.51439       76.78109
C         41.40733       67.77663       77.20327
O         42.62133       67.86939       77.11857
O         40.70674       68.78813       77.72725
H         41.14937       66.58502       79.46831
H         39.55674       64.88089       77.52463
H         40.06552       66.71753       75.89981
H         41.49289       65.78968       76.46141
N         38.11394       66.90588       79.42437
C         36.74891       67.34254       79.72323
C         36.41245       68.75204       79.25489
O         35.26355       69.14535       79.40415
C         36.51149       67.25903       81.23788
H         38.73763       66.70972       80.22012
H         36.04771       66.62719       79.23846
H         37.19363       67.95389       81.77481
H         35.46113       67.51672       81.48955
H         36.70689       66.22424       81.59316
N         37.35413       69.58643       78.73787
C         37.09306       70.97744       78.37962
C         37.44866       71.23599       76.92435
O         36.60372       71.71090       76.17831
C         37.82155       71.93244       79.35960
C         39.29991       71.71058       79.53232
O         39.75901       70.56297       80.06749
O         40.08643       72.60288       79.26719
H         38.31491       69.23971       78.64291
H         36.01475       71.22692       78.49747
H         37.36888       71.81174       80.36752
H         37.63548       72.97959       79.03251
N         38.68529       70.93727       76.45048
C         39.14125       71.21020       75.10115
C         39.28981       72.69240       74.91474
O         38.77295       73.24662       73.95591
H         39.36214       70.51739       77.08806
H         38.47604       70.74111       74.34320
H         40.15669       70.77246       74.98466
N         39.97194       73.39742       75.85795
C         40.16315       74.83629       75.83306
C         41.62241       75.14970       76.12943
O         42.27756       75.79294       75.32113
C         39.22829       75.47750       76.87688
C         39.24804       76.98253       76.78958
N         39.62169       77.73652       77.84806
O         38.90998       77.52784       75.74912
H         40.31601       72.87979       76.67857
H         39.87623       75.24253       74.83716
H         39.49585       75.13253       77.89883
H         38.18540       75.14526       76.67934
H         39.90791       77.29927       78.73554
H         39.62398       78.76497       77.77784
N         42.19638       74.69905       77.28249
C         43.58530       74.95271       77.63860
C         43.99988       74.23628       78.92041
O         43.19569       73.51307       79.49198
H         41.61133       74.14892       77.92301
H         43.71793       76.04846       77.76383
H         44.24501       74.58872       76.82119
N         45.24256       74.35750       79.46610
C         46.30790       75.21879       78.96138
C         47.55338       74.42550       78.57485
O         48.50729       75.04859       78.12860
C         46.67903       76.24193       80.06660
C         45.48237       77.11249       80.46736
O         47.15695       75.55794       81.19942
H         45.43635       73.82403       80.32932
H         45.98105       75.77399       78.05941
H         47.47773       76.90947       79.66572
H         47.71579       76.19637       81.71442
H         44.66169       76.49177       80.88652
H         45.79381       77.84187       81.24517
H         45.10170       77.67258       79.58814
N         47.62863       73.06886       78.71198
C         48.85336       72.28142       78.52478
C         48.49993       70.79586       78.36379
O         47.64332       70.32122       79.09652
C         49.85791       72.45559       79.71796
C         49.15521       72.23155       81.08777
C         50.59581       73.80566       79.68040
C         50.07694       72.35358       82.30017
H         46.77734       72.56165       78.99068
H         49.32510       72.61255       77.58159
H         50.65579       71.69101       79.57943
H         48.71283       71.21618       81.11645
H         48.33407       72.97040       81.21342
H         49.93534       74.64949       79.95407
H         51.43800       73.80717       80.40174
H         51.04268       73.97068       78.67637
H         50.91111       71.62593       82.22735
H         50.48103       73.38255       82.39387
H         49.49390       72.14501       83.22212
N         49.06403       69.97087       77.42887
C         50.21011       70.28238       76.57673
C         51.29005       69.21718       76.71398
O         50.98239       68.05396       76.92929
C         49.78353       70.46895       75.11033
C         49.04151       69.29434       74.53408
O         47.89674       69.43610       74.13483
O         49.63404       68.08989       74.43275
H         48.66823       69.02120       77.34212
H         50.68531       71.23483       76.87348
H         50.68245       70.67454       74.48838
H         49.12898       71.36701       75.05905
N         52.59931       69.57759       76.60585
C         53.72606       68.64948       76.71066
C         54.51983       68.99712       77.97074
O         54.21237       70.01657       78.57111
C         54.60625       68.84673       75.45197
C         53.85707       68.60199       74.16402
C         53.65541       67.29521       73.69057
C         53.37145       69.68726       73.41161
C         52.98521       67.08074       72.48010
C         52.68736       69.46755       72.21302
C         52.49831       68.16558       71.74468
H         52.81859       70.57375       76.45083
H         53.36119       67.60530       76.78865
H         55.52392       68.23218       75.44341
H         54.95446       69.90400       75.46490
H         54.03394       66.44693       74.24679
H         53.51147       70.70371       73.75810
H         52.84506       66.07372       72.10919
H         52.30749       70.30777       71.64564
H         51.97678       67.99855       70.81078
N         55.56126       68.24321       78.45743
C         56.05806       66.96490       77.96616
C         55.02556       65.85707       77.94299
O         54.90361       65.18530       76.93000
C         57.14984       66.58245       78.98049
C         57.67016       67.93187       79.39914
C         56.37064       68.70834       79.56811
H         56.52961       67.10470       76.97267
H         56.69826       66.13942       79.89796
H         57.90688       65.86857       78.59135
H         58.32792       67.93199       80.29349
H         58.23006       68.36047       78.53603
H         55.84776       68.46189       80.51871
H         56.60150       69.79445       79.51738
N         54.26871       65.58717       79.04917
C         53.39289       64.42519       79.12080
C         54.27319       63.18227       79.24855
O         54.99727       63.11582       80.23300
C         52.44903       64.49435       80.34514
C         51.50425       65.70518       80.28618
C         50.52735       65.67727       81.42724
O         49.32774       65.62662       81.20599
O         50.96765       65.71242       82.69963
H         54.34658       66.20626       79.86950
H         52.73418       64.42967       78.23609
H         53.03598       64.52819       81.29041
H         51.82889       63.56933       80.35256
H         50.94377       65.68804       79.32570
H         52.08396       66.65069       80.33729
N         54.32732       62.15515       78.34915
C         53.58178       62.03595       77.11351
H         52.89808       62.87202       76.90812
H         54.29814       61.96961       76.26801
H         52.98173       61.10291       77.14272
H         54.97416       61.37743       78.55606
Ca        42.47071       70.74070       78.99616
O         43.08066       71.37822       81.93141
H         42.21892       71.83852       82.09249
H         43.02047       70.54586       82.46395
O         43.03783       71.37278       76.14340
H         42.68742       72.16298       75.66154
H         43.96059       71.62622       76.39805
O         42.30687       68.43016       80.91025
H         42.79326       67.63247       81.23726
H         41.38433       68.31972       81.25287
O         45.04083       69.47198       78.19860
H         44.98579       68.85888       78.97422
H         45.08164       70.37616       78.60099

Ca 1.0



