%chk=apoCaM-CA-Ng.loop3.water4.frame290.chk
%nprocshared=20
%mem=10GB
%nosave
#b3lyp/svp scf=(tight,noincore,xqc) Test 
#IOP(5/87=12) Density=Current Pop=(MK,readradii) iop(6/33=2) iop(6/42=6)

apoCaM-CA-Ng.loop3.water4.frame290 

   0  1 
C         56.56660       33.20253       13.91781
C         56.80513       32.40704       12.67075
O         55.95923       31.61482       12.29999
H         56.59445       34.28651       13.68534
H         55.58010       32.95104       14.36341
H         57.35920       32.96512       14.65954
N         57.97243       32.54491       11.98801
C         58.34702       31.76239       10.81294
C         58.36741       30.27115       11.14400
O         57.91683       29.44510       10.36217
C         57.48182       32.14829        9.59592
C         57.95447       31.51527        8.31717
O         57.20565       30.79902        7.67191
O         59.20097       31.75327        7.86613
H         58.67029       33.21144       12.35355
H         59.39657       32.04631       10.57494
H         57.54408       33.24792        9.46413
H         56.42259       31.88183        9.78233
N         58.90319       29.87669       12.33182
C         59.09837       28.48777       12.75230
C         57.79006       27.69752       12.88158
O         57.85491       26.49387       13.09095
C         59.82195       28.46222       14.12694
C         61.16881       29.22273       14.13956
C         61.74550       29.31280       15.55667
C         62.98024       30.22716       15.58186
N         63.52792       30.33478       16.93261
H         59.20341       30.62996       12.96107
H         59.73917       27.99157       11.99049
H         60.00296       27.41191       14.44406
H         59.14263       28.93715       14.87083
H         61.03994       30.26689       13.80179
H         61.89189       28.73501       13.45161
H         62.00282       28.29572       15.92151
H         60.98060       29.75443       16.23433
H         62.69046       31.24441       15.23027
H         63.75940       29.83014       14.89525
H         64.34604       30.98589       16.91781
H         62.80564       30.71710       17.58588
H         63.84499       29.39556       17.26445
N         56.57312       28.31011       12.82494
C         55.29351       27.62939       13.01882
C         55.00931       26.62071       11.90786
O         55.62340       26.69914       10.85207
C         54.19458       28.72303       13.11181
C         52.81880       28.22660       13.41285
O         51.88138       28.51188       12.68767
O         52.62174       27.48625       14.51122
H         56.55350       29.32692       12.71202
H         55.34727       27.08601       13.98888
H         54.17952       29.32096       12.17619
H         54.47051       29.40569       13.94485
N         54.10930       25.60760       12.10119
C         53.78589       24.62681       11.07015
C         52.94728       25.20776        9.94498
O         52.79193       24.54493        8.92959
H         53.66818       25.50142       13.02534
H         53.20717       23.78437       11.50649
H         54.73537       24.20813       10.67064
N         52.35556       26.42873       10.06833
C         51.59345       27.09992        9.02265
C         52.24488       28.42762        8.65621
O         51.73500       29.09801        7.76982
C         50.18101       27.43250        9.55426
C         49.40191       26.23219       10.01393
N         49.00269       25.28528        9.13679
O         49.10248       26.12881       11.19375
H         52.44615       26.92495       10.95972
H         51.53107       26.46792        8.10998
H         49.58555       27.96321        8.77928
H         50.30079       28.12510       10.41666
H         49.22559       25.36829        8.13489
H         48.44881       24.47854        9.46070
N         53.32805       28.90481        9.33868
C         53.85622       30.24402        9.19981
C         52.82814       31.25974        9.64920
O         51.83729       31.45372        8.96060
H         53.79063       28.32962       10.04932
H         54.19741       30.44367        8.16267
H         54.74434       30.31715        9.86401
N         53.00146       31.94714       10.81176
C         52.08091       32.96968       11.29030
C         51.49458       32.58767       12.63226
O         51.90285       31.60159       13.23112
C         52.83760       34.30833       11.35959
C         53.32838       34.65653        9.97666
C         54.67771       34.47550        9.63694
C         52.42723       35.11160        9.00027
C         55.11545       34.72880        8.33361
C         52.87077       35.38116        7.70265
C         54.21669       35.18169        7.36331
O         54.65607       35.41594        6.11060
H         53.83016       31.75434       11.38199
H         51.22120       33.07127       10.59210
H         53.69565       34.17376       12.05631
H         52.21402       35.13890       11.75576
H         55.38067       34.10914       10.37364
H         51.38230       35.25680        9.24566
H         56.15197       34.56544        8.07149
H         52.16641       35.73467        6.96049
H         54.06621       35.72229        5.40733
N         50.45330       33.31412       13.11752
C         49.70781       32.98825       14.32641
C         48.32920       32.50891       13.88610
O         47.95104       31.40712       14.25412
C         49.67980       34.20896       15.28687
C         51.13446       34.63091       15.63940
C         48.88861       33.86568       16.56648
C         51.22756       35.92973       16.44143
H         50.12901       34.11605       12.55651
H         50.19365       32.14916       14.87699
H         49.17690       35.05334       14.76616
H         51.70678       34.80752       14.70398
H         51.64198       33.81420       16.19964
H         48.81396       34.73983       17.24309
H         47.85098       33.56403       16.32346
H         49.37530       33.02969       17.11458
H         50.74345       35.83930       17.43352
H         52.29706       36.17844       16.61060
H         50.75949       36.76122       15.87304
N         47.57132       33.22739       13.00280
C         46.36867       32.66496       12.38678
C         45.19639       32.54109       13.34016
O         44.22675       31.88823       12.97689
C         45.94768       33.47309       11.15069
O         45.52578       34.76307       11.50782
H         47.92785       34.13127       12.66471
H         46.63652       31.64582       12.02419
H         45.10767       32.95960       10.63508
H         46.78498       33.51413       10.41554
H         46.32455       35.35011       11.47678
N         45.20502       33.13049       14.56954
C         44.14558       32.98282       15.55586
C         43.97487       31.51768       15.90353
O         42.86079       31.01394       15.92324
C         42.84021       33.64655       15.08319
H         46.02049       33.69040       14.85418
H         44.47315       33.50815       16.48000
H         42.06556       33.58084       15.87642
H         43.02178       34.71841       14.85801
H         42.44167       33.15798       14.16967
N         45.08435       30.75781       16.12967
C         45.02159       29.33370       16.41442
C         46.05378       28.94861       17.45002
O         46.93830       29.73485       17.75502
C         45.26054       28.54613       15.12752
H         46.00981       31.19325       16.00862
H         44.01413       29.07685       16.80983
H         44.48800       28.81412       14.37545
H         46.26136       28.78843       14.70947
H         45.19873       27.45393       15.31882
N         45.95886       27.73891       18.06964
C         46.86743       27.27657       19.11028
C         47.10932       28.36483       20.14368
O         48.25217       28.70561       20.42191
C         48.16384       26.68397       18.50106
C         47.83420       25.50635       17.56242
C         49.02470       24.62471       17.30144
O         50.10941       25.02403       16.61788
O         49.02045       23.48808       17.74556
H         45.15046       27.13869       17.84783
H         46.36454       26.43898       19.64412
H         48.76918       26.29794       19.35126
H         48.76490       27.44860       17.96412
H         47.37769       25.86255       16.61367
H         47.08752       24.86486       18.07981
N         46.04858       28.99167       20.72122
C         46.21237       30.08092       21.65768
H         45.21730       30.46868       21.96304
H         46.75629       29.73004       22.55901
H         46.77893       30.90875       21.17845
H         45.09076       28.70919       20.46204
Ca        50.65597       26.73643       15.28675
O         49.17044       29.48159       12.51705
H         49.83022       30.06669       12.96539
H         49.05796       29.88512       11.62053
O         51.20975       24.46747       13.43782
H         51.81047       24.30047       14.20749
H         50.91618       23.56668       13.15264
O         47.28463       26.50930       13.50309
H         46.79713       25.64915       13.55410
H         46.89885       26.96632       12.71353
O         49.60279       29.25030       16.20997
H         48.87550       29.89688       16.04082
H         50.43415       29.77755       16.11160

Ca 1.0



