%chk=apoCaM-CA-Ng.loop1.water3.frame442.chk
%nprocshared=20
%mem=10GB
%nosave
#b3lyp/svp scf=(tight,noincore,xqc) Test 
#IOP(5/87=12) Density=Current Pop=(MK,readradii) iop(6/33=2) iop(6/42=6)

apoCaM-CA-Ng.loop1.water3.frame442 

   0  1 
C        118.76954       83.66592       61.06206
C        118.35677       84.04680       59.67111
O        118.39110       83.20928       58.78154
H        119.61914       84.30417       61.38481
H        117.91760       83.81903       61.75786
H        119.08282       82.60163       61.10691
N        117.93995       85.31756       59.41944
C        117.48501       85.78708       58.11216
C        118.58247       85.87094       57.04151
O        118.26411       86.33839       55.96084
C        116.73235       87.13207       58.26351
C        117.56787       88.25305       58.81317
O        117.21324       88.84440       59.97038
O        118.54982       88.65083       58.20817
H        117.88782       85.96446       60.22193
H        116.71117       85.08583       57.73724
H        115.86597       86.96724       58.94267
H        116.31767       87.44108       57.28211
N        119.85847       85.41062       57.21802
C        120.87882       85.45473       56.16926
C        121.20780       84.06144       55.64737
O        121.43850       83.18632       56.47050
C        122.19557       86.05633       56.70104
C        122.17989       87.58140       56.83205
C        123.58469       88.06921       57.22077
C        123.70385       89.59429       57.15652
N        125.05710       90.01957       57.51716
H        120.12737       84.97057       58.10644
H        120.53541       86.06889       55.33221
H        122.99277       85.83045       55.95929
H        122.48936       85.56583       57.65546
H        121.42474       87.91489       57.57525
H        121.92040       88.00974       55.83951
H        124.33038       87.64858       56.50870
H        123.82958       87.70609       58.24284
H        122.96920       90.06265       57.84648
H        123.48222       89.93219       56.11868
H        125.26828       89.74330       58.50354
H        125.75820       89.58313       56.87412
H        125.12608       91.05904       57.43227
N        121.38693       83.76656       54.31376
C        121.22597       84.66438       53.16096
C        122.02589       85.96549       53.30841
O        121.42579       87.02954       53.37230
C        119.73103       84.89849       52.84213
C        119.01097       83.65396       52.39176
O        117.83576       83.72629       52.06965
O        119.64230       82.46580       52.31723
H        121.71085       82.81197       54.09154
H        121.61926       84.15793       52.25305
H        119.66118       85.61204       51.99475
H        119.20109       85.31871       53.71491
N        123.38746       85.99799       53.33973
C        124.20641       84.82776       53.08234
C        125.69918       85.12905       53.06221
O        126.10496       86.20594       53.47449
H        123.83677       86.91760       53.46750
H        123.92602       84.48529       52.06434
H        124.00528       84.02410       53.82114
N        126.60216       84.25342       52.52725
C        126.23289       82.97969       51.91653
C        126.24072       83.10508       50.40414
O        126.72509       84.09756       49.87529
C        127.10571       81.81344       52.42935
C        128.55799       81.90651       52.03033
O        129.05115       81.03954       51.32653
O        129.33335       82.91501       52.47091
H        127.58075       84.56820       52.45996
H        125.19385       82.71881       52.19465
H        126.69054       80.86517       52.02252
H        127.03752       81.75916       53.53726
N        125.63646       82.15101       49.64562
C        125.52405       82.22473       48.19896
C        124.79148       83.47211       47.74754
O        125.33077       84.21308       46.93824
H        125.20340       81.34194       50.11755
H        124.95342       81.33907       47.84418
H        126.53655       82.18573       47.74129
N        123.55606       83.76744       48.24137
C        122.76445       84.92609       47.83007
C        122.62910       85.88540       48.99552
O        122.28337       85.45297       50.08524
C        121.37535       84.46741       47.32918
C        121.48570       83.54952       46.10447
O        120.56755       85.57618       47.01728
H        123.15313       83.13970       48.95517
H        123.25553       85.46997       46.99267
H        120.87002       83.90096       48.14220
H        121.03854       86.11223       46.32619
H        120.47221       83.23697       45.77617
H        121.98274       84.08237       45.26509
H        122.07222       82.63842       46.34605
N        122.88426       87.21658       48.82410
C        122.90216       88.18290       49.92004
C        121.73713       89.16222       49.82207
O        121.94585       90.36858       49.86588
C        124.29865       88.88805       49.98779
C        124.63757       89.67707       48.68413
C        125.39170       87.84928       50.29664
C        125.87907       90.55979       48.80557
H        123.08713       87.55599       47.87347
H        122.74338       87.65963       50.88841
H        124.26155       89.60409       50.83935
H        123.80860       90.36029       48.41801
H        124.78161       88.98407       47.82937
H        125.14088       87.30273       51.22657
H        125.48588       87.11402       49.46864
H        126.37622       88.33210       50.45551
H        126.01814       91.12368       47.85825
H        125.74910       91.29023       49.63216
H        126.79330       89.95936       48.97817
N        120.45714       88.70171       49.74680
C        119.28772       89.57946       49.73407
C        118.38415       89.35088       50.94551
O        117.37157       90.02309       51.04483
C        118.52239       89.45058       48.39531
C        117.94587       88.05824       48.13647
O        119.38488       89.78488       47.33534
H        120.30721       87.68061       49.71249
H        119.60091       90.64540       49.79977
H        117.65647       90.15676       48.42184
H        119.12882       90.68811       47.01114
H        118.75148       87.30105       48.06309
H        117.24083       87.76961       48.94289
H        117.39266       88.06691       47.17295
N        118.71281       88.45274       51.92913
C        117.95083       88.23457       53.15828
C        116.58238       87.61852       52.87732
O        116.21235       87.47105       51.71599
C        117.90765       89.53404       54.01920
C        119.32714       90.05336       54.29191
O        117.28866       89.28618       55.25353
H        119.57815       87.91135       51.84090
H        118.50610       87.48053       53.75018
H        117.33293       90.31297       53.47127
H        116.98826       90.16142       55.61366
H        119.28106       90.97616       54.90753
H        119.91719       89.28930       54.84257
H        119.85224       90.30024       53.34561
N        115.79007       87.18828       53.90020
C        114.48767       86.55840       53.73009
C        114.45361       85.12820       54.28495
O        113.42051       84.49107       54.18560
C        113.38434       87.49705       54.27241
C        113.48887       87.90195       55.75389
C        112.47151       89.01606       56.05682
C        112.56131       89.50604       57.50758
N        111.66192       90.64069       57.72706
H        116.12905       87.29906       54.86515
H        114.25543       86.44776       52.64703
H        112.38344       87.05152       54.08264
H        113.45583       88.42721       53.66469
H        114.49342       88.32029       55.96284
H        113.32083       87.01741       56.40550
H        111.43911       88.65898       55.84971
H        112.68799       89.87875       55.38729
H        113.60330       89.82730       57.73056
H        112.29244       88.67591       58.19704
H        111.94113       91.44198       57.11420
H        110.67386       90.36914       57.51814
H        111.72780       90.94629       58.72468
N        115.58248       84.52761       54.78405
C        115.66104       83.10696       55.12318
C        114.75703       82.73385       56.28002
O        114.89976       83.29116       57.35881
C        117.12641       82.72899       55.46106
C        117.35385       81.22390       55.68630
C        116.99768       80.40860       54.47431
O        116.05194       79.45388       54.55759
O        117.56212       80.60618       53.41061
H        116.45197       85.06551       54.83221
H        115.37618       82.53202       54.21571
H        117.45520       83.27797       56.36457
H        117.78309       83.04998       54.63240
H        116.75839       80.87893       56.55800
H        118.42805       81.05741       55.91909
N        113.83547       81.74032       56.12823
C        112.99510       81.25525       57.20385
H        111.92870       81.37419       56.92352
H        113.20453       80.17629       57.36820
H        113.17556       81.79036       58.15956
H        113.74195       81.27495       55.21313
Ca       120.20439       79.33373       52.40260
O        117.11202       78.36064       51.27158
H        116.34042       78.32660       50.65194
H        117.50279       77.45177       51.23325
O        120.13621       78.90845       49.25050
H        119.73685       78.05086       48.95811
H        121.08611       78.84715       48.97791
O        117.82276       80.95216       49.69204
H        118.36317       81.77330       49.80875
H        117.31328       81.10651       48.85721

Ca 1.0



