%chk=apoCaM-CA-Ng.loop3.water2.frame775.chk
%nprocshared=20
%mem=10GB
%nosave
#b3lyp/svp scf=(tight,noincore,xqc) Test 
#IOP(5/87=12) Density=Current Pop=(MK,readradii) iop(6/33=2) iop(6/42=6)

apoCaM-CA-Ng.loop3.water2.frame775 

   0  1 
C         95.32981       76.85962       -3.60581
C         96.22776       75.73349       -4.02793
O         97.28028       76.00236       -4.58629
H         94.41849       76.48523       -3.09410
H         95.88008       77.51444       -2.89572
H         95.02777       77.45650       -4.49015
N         95.89944       74.44007       -3.75039
C         96.80925       73.32512       -4.01735
C         96.95237       73.07524       -5.52359
O         96.14791       73.59552       -6.28456
C         96.29022       72.05336       -3.28040
C         97.36870       71.18414       -2.68505
O         97.33968       70.90307       -1.36848
O         98.26362       70.72181       -3.36257
H         95.01446       74.26628       -3.24954
H         97.77976       73.61147       -3.57933
H         95.60684       71.47783       -3.94291
H         95.68871       72.35663       -2.39593
N         97.92561       72.25414       -6.01921
C         97.99554       71.82695       -7.41814
C         97.80052       70.32180       -7.54777
O         97.65778       69.86344       -8.67422
C         99.34012       72.21801       -8.05844
C         99.46255       73.72842       -8.29705
C        100.83148       74.13956       -8.87402
C        101.18683       73.44537      -10.20285
N        102.45368       73.94876      -10.73292
H         98.63280       71.88433       -5.37478
H         97.16799       72.28249       -8.00557
H         99.40552       71.72452       -9.05097
H        100.17415       71.84523       -7.42346
H         99.31396       74.27214       -7.34078
H         98.65997       74.04334       -9.00024
H        101.62676       73.91698       -8.13091
H        100.80757       75.23876       -9.03836
H        100.38166       73.62243      -10.94956
H        101.28727       72.35000      -10.04350
H        103.22213       73.79519      -10.03997
H        102.68592       73.43349      -11.61295
H        102.37125       74.96832      -10.94996
N         97.76892       69.48991       -6.46657
C         97.46855       68.07331       -6.55311
C         96.22376       67.80284       -5.71434
O         95.23655       67.34047       -6.26872
C         98.69947       67.19982       -6.20244
C         99.08281       67.17925       -4.75754
O         98.97451       66.13083       -4.13994
O         99.45803       68.28379       -4.08805
H         97.93443       69.86358       -5.53223
H         97.23618       67.80086       -7.60653
H         99.57234       67.50748       -6.81606
H         98.44310       66.15382       -6.48425
N         96.17393       68.11713       -4.38224
C         94.96918       67.93431       -3.59524
C         95.17290       68.23860       -2.12345
O         94.46288       69.07354       -1.58107
H         96.99767       68.51263       -3.91718
H         94.64831       66.87287       -3.66497
H         94.15952       68.57479       -4.01099
N         96.06885       67.50740       -1.40012
C         96.13360       67.49714        0.06244
C         97.53507       67.88576        0.62987
O         98.53600       67.06798        0.10505
C         95.71805       66.07358        0.49461
C         94.31463       65.78280        0.01598
N         94.08647       64.87181       -0.95919
O         93.37702       66.40408        0.49365
H         96.63229       66.80819       -1.90633
H         95.40843       68.22119        0.49625
H         95.75223       65.93985        1.59569
H         96.43388       65.35048        0.04274
H         94.86444       64.36107       -1.40140
H         93.12787       64.69916       -1.29693
N         97.50637       67.75940        2.09675
C         98.80978       67.83112        2.77616
C         99.43485       69.19796        2.67907
O         98.78756       70.17243        3.03690
H         96.84959       68.46635        2.50098
H         99.49490       67.04077        2.39760
H         98.64161       67.61270        3.85176
N        100.71742       69.34352        2.24040
C        101.36118       70.65095        2.13418
C        100.69294       71.47826        1.05307
O         99.83905       70.96013        0.34722
C        102.86432       70.48760        1.81526
C        103.58219       69.72816        2.90700
C        103.71826       70.28346        4.19158
C        104.12098       68.45635        2.65125
C        104.37859       69.57580        5.20130
C        104.77259       67.74718        3.66408
C        104.90500       68.30224        4.94070
O        105.53842       67.60470        5.90522
H        101.25446       68.49623        2.00137
H        101.25378       71.17945        3.10736
H        103.36025       71.47532        1.69758
H        102.95416       69.95169        0.84521
H        103.31874       71.26591        4.41052
H        104.02811       68.00677        1.67166
H        104.47918       70.01713        6.18507
H        105.17419       66.76364        3.45543
H        105.65229       67.95143        6.80158
N        101.02503       72.79317        0.89031
C        100.43990       73.68390       -0.11068
C        100.87438       73.24448       -1.50646
O        100.67548       72.09401       -1.86791
C         98.88829       73.79844        0.02721
C         98.28920       74.89862       -0.89106
C         98.44706       74.01338        1.48706
C         98.67765       76.34015       -0.54486
H        101.71985       73.20315        1.53293
H        100.85704       74.69363        0.08266
H         98.43878       72.84213       -0.29619
H         97.17955       74.82899       -0.84990
H         98.60430       74.71366       -1.93246
H         97.33911       74.07582        1.54501
H         98.75863       73.15888        2.12253
H         98.88983       74.93557        1.91410
H         99.77062       76.49931       -0.62757
H         98.18102       77.02991       -1.25939
H         98.33874       76.61350        0.47487
N        101.46054       74.13028       -2.35859
C        101.92906       73.76025       -3.69384
C        103.22723       74.46434       -4.09096
O        103.67139       74.25714       -5.21288
C        100.83572       74.09978       -4.70752
O        100.59291       75.47936       -4.71195
H        101.46003       75.12273       -2.08382
H        102.09874       72.66133       -3.75307
H         99.92107       73.54616       -4.41337
H        101.14269       73.76647       -5.72204
H         99.70935       75.60176       -5.14165
N        103.86610       75.34502       -3.26461
C        104.99711       76.15906       -3.69863
C        106.21861       75.32417       -4.04299
O        106.30001       74.19306       -3.58423
C        105.37034       77.13212       -2.57230
H        103.50932       75.50276       -2.31402
H        104.66447       76.73986       -4.58140
H        104.50678       77.79091       -2.33859
H        105.64762       76.56852       -1.65539
H        106.23208       77.75956       -2.84401
N        107.25938       75.80447       -4.79139
C        107.25639       77.05627       -5.55576
C        108.68383       77.45978       -5.91280
O        109.41095       76.60792       -6.40599
C        106.47035       76.86353       -6.85966
H        108.07316       75.17878       -4.90121
H        106.76021       77.86038       -4.99598
H        106.93399       76.07132       -7.48501
H        105.41874       76.57647       -6.66519
H        106.46209       77.81434       -7.43639
N        109.18442       78.72496       -5.77062
C        108.43594       79.90721       -5.34948
C        108.02110       79.82116       -3.89577
O        106.84143       79.97754       -3.61415
C        109.28097       81.17680       -5.60752
C        108.47316       82.46933       -5.41391
C        109.29349       83.66951       -5.79278
O        108.93401       84.39489       -6.70693
O        110.42967       83.95190       -5.12750
H        110.16173       78.86689       -6.07447
H        107.53656       79.99829       -6.00006
H        109.61361       81.15296       -6.66961
H        110.18652       81.18222       -4.96116
H        108.14549       82.57142       -4.35800
H        107.56909       82.43063       -6.06211
N        108.94032       79.57207       -2.92131
C        108.59896       79.43531       -1.51871
H        107.51257       79.56707       -1.32944
H        108.88779       78.42092       -1.17056
H        109.15392       80.19087       -0.92557
H        109.92964       79.44810       -3.18319
Ca        98.86535       67.86284       -1.98014
O        102.69925       69.97349       -2.05883
H        103.20428       70.82275       -2.12250
H        103.34287       69.33285       -1.66528
O        101.51103       67.44927       -0.52742
H        102.40126       67.49574       -0.09877
H        101.15503       66.56559       -0.25910

Ca 1.0



