%chk=apoCaM-CA-Ng.loop3.water4.frame1005.chk
%nprocshared=20
%mem=10GB
%nosave
#b3lyp/svp scf=(tight,noincore,xqc) Test 
#IOP(5/87=12) Density=Current Pop=(MK,readradii) iop(6/33=2) iop(6/42=6)

apoCaM-CA-Ng.loop3.water4.frame1005 

   0  1 
C         28.79360       53.31901       11.94192
C         29.05947       54.69462       11.40449
O         29.47787       55.56619       12.15298
H         27.72192       53.06524       11.79535
H         29.41727       52.57823       11.39857
H         29.02868       53.26197       13.02560
N         28.82620       54.95742       10.09080
C         29.02632       56.26914        9.48170
C         28.12337       57.30075       10.12606
O         28.59779       58.37203       10.47169
C         28.73082       56.22263        7.96927
C         29.64579       55.26586        7.25545
O         29.18369       54.32364        6.63218
O         30.98005       55.44733        7.29521
H         28.48002       54.18385        9.50117
H         30.08882       56.58344        9.60030
H         28.88864       57.23441        7.53444
H         27.67064       55.93173        7.79824
N         26.80335       57.03184       10.32914
C         25.87164       57.99346       10.90708
C         25.65594       59.14530        9.95275
O         25.52950       58.92909        8.75489
C         24.52201       57.33405       11.23802
C         24.66542       56.35088       12.41181
C         23.32996       55.67728       12.73554
C         23.46224       54.75808       13.95701
N         22.20350       54.06477       14.22590
H         26.45159       56.09713       10.07084
H         26.27428       58.38322       11.87041
H         24.11467       56.82932       10.33508
H         23.80300       58.12312       11.55541
H         25.01769       56.91319       13.30654
H         25.41589       55.56735       12.17153
H         23.00774       55.08238       11.85356
H         22.55925       56.45057       12.94888
H         23.74707       55.36475       14.84639
H         24.26107       54.00489       13.77672
H         22.31836       53.46215       15.07250
H         21.43896       54.75647       14.40158
H         21.95108       53.45852       13.41166
N         25.56940       60.41131       10.44109
C         25.41280       61.59189        9.59450
C         26.63145       61.80335        8.70445
O         27.61328       61.08195        8.82562
C         25.14708       62.84593       10.46985
C         26.21813       63.11017       11.50064
O         26.09255       64.03752       12.28386
O         27.28144       62.28969       11.60297
H         25.59187       60.52593       11.46563
H         24.52473       61.44340        8.94098
H         24.18994       62.68925       11.01337
H         25.02307       63.74491        9.83003
N         26.62680       62.79876        7.77505
C         27.75268       63.07733        6.90368
C         28.01157       61.91709        5.96715
O         27.07093       61.52596        5.29101
H         25.79242       63.39709        7.68279
H         28.61585       63.33378        7.53674
H         27.50715       63.96349        6.27933
N         29.21320       61.27735        5.83947
C         30.47176       61.63826        6.49243
C         31.38814       60.41027        6.50993
O         31.69362       59.89726        5.44196
C         31.20675       62.75839        5.71001
C         30.52993       64.10385        5.75013
N         30.04074       64.66951        4.62225
O         30.44654       64.70439        6.81129
H         29.22871       60.46401        5.20297
H         30.28267       61.96465        7.52869
H         31.32895       62.42587        4.65596
H         32.22495       62.90474        6.13486
H         30.10652       64.18583        3.71517
H         29.58573       65.59391        4.65742
N         31.89758       59.87426        7.65703
C         31.63308       60.42887        8.97292
C         32.41062       59.76802       10.08385
O         33.13608       58.80834        9.85989
H         32.52253       59.05856        7.56385
H         30.54723       60.36359        9.20017
H         31.95380       61.49366        8.97088
N         32.31834       60.29566       11.33532
C         33.12668       59.85217       12.47310
C         32.70278       60.58229       13.74654
O         32.02053       61.59719       13.66455
C         34.61431       60.16828       12.14282
C         35.65935       59.77529       13.15462
C         36.51338       60.75392       13.69337
C         35.84161       58.43174       13.51675
C         37.53529       60.39445       14.57445
C         36.86512       58.07394       14.40144
C         37.71885       59.05513       14.92867
O         38.72265       58.72336       15.76526
H         31.65701       61.07700       11.45182
H         32.94923       58.76425       12.61991
H         34.68359       61.26154       11.94364
H         34.90972       59.65793       11.20604
H         36.40365       61.79563       13.41724
H         35.20338       57.66193       13.10235
H         38.19401       61.15758       14.97041
H         37.00225       57.03345       14.66606
H         38.89893       57.80680       16.02039
N         33.07126       60.12508       14.97783
C         32.75905       60.88349       16.18741
C         33.41744       62.24373       16.11235
O         34.55128       62.33937       15.66193
C         33.13615       60.17513       17.52566
C         32.15426       59.01622       17.82547
C         34.61208       59.72885       17.58698
C         32.29020       58.46707       19.24941
H         33.59153       59.23987       15.04253
H         31.65955       61.05247       16.22968
H         32.97261       60.92907       18.33011
H         32.27112       58.19652       17.08560
H         31.11542       59.40818       17.74754
H         34.86619       59.34803       18.59622
H         34.82437       58.92115       16.85745
H         35.29278       60.58011       17.38771
H         31.50130       57.70743       19.43178
H         33.27390       57.98342       19.40872
H         32.15920       59.28588       19.99084
N         32.76717       63.33845       16.59356
C         33.36979       64.66053       16.60668
C         32.39294       65.74552       16.19166
O         31.20182       65.49742       16.07691
C         33.85661       64.94529       18.03585
O         32.76803       64.94088       18.92246
H         31.85804       63.20474       17.05891
H         34.24456       64.69140       15.92097
H         34.37310       65.92868       18.06990
H         34.57867       64.15295       18.33215
H         33.12408       65.21687       19.80573
N         32.86074       67.01615       16.04063
C         32.04183       68.21701       15.95668
C         31.31906       68.42524       17.27822
O         30.16135       68.82203       17.28593
C         31.11064       68.22955       14.73243
H         33.88027       67.16504       16.09188
H         32.74257       69.07466       15.85347
H         30.34473       67.43104       14.79667
H         30.57744       69.20255       14.66878
H         31.69751       68.09129       13.80073
N         31.96302       68.13454       18.45406
C         31.39741       68.31470       19.78629
C         30.08089       67.57015       20.00830
O         29.43637       67.83197       21.01513
C         31.25930       69.81340       20.07444
H         32.92445       67.76852       18.41511
H         32.12327       67.93348       20.53986
H         32.25231       70.30074       19.95770
H         30.53607       70.29861       19.38969
H         30.93042       69.97234       21.12374
N         29.61192       66.62975       19.13215
C         28.29277       66.01250       19.26466
C         28.11005       65.19745       20.53998
O         26.98489       64.79336       20.80019
C         27.97409       65.13592       18.02890
C         28.82506       63.85390       17.97216
C         28.56478       63.08015       16.71753
O         29.58089       62.81900       15.87719
O         27.44428       62.66914       16.46067
H         30.17963       66.38410       18.31232
H         27.55768       66.84800       19.27732
H         28.14080       65.74453       17.11153
H         26.90074       64.84452       18.04971
H         28.58918       63.20157       18.83952
H         29.90200       64.10961       18.01685
N         29.15570       64.88428       21.36003
C         29.00995       64.09823       22.56831
H         27.95852       63.79509       22.75615
H         29.62816       63.18017       22.48434
H         29.36232       64.69297       23.43634
H         30.10972       65.19006       21.12458
Ca        28.71615       62.32922       13.32479
O         29.78390       59.50969       12.97831
H         28.83178       59.55198       12.71192
H         30.08973       58.61494       12.68530
O         29.23576       65.09219       13.10368
H         29.31523       65.94633       12.61147
H         29.35716       65.33219       14.05594
O         30.07496       63.18664       10.82474
H         29.67555       62.37414       10.42454
H         30.82302       63.41975       10.22111
O         26.91393       60.01104       14.81530
H         26.34314       60.02419       14.00637
H         27.45031       59.18341       14.72805

Ca 1.0



