%chk=apoCaM-CA-Ng.loop4.water5.frame922.chk
%nprocshared=20
%mem=10GB
%nosave
#b3lyp/svp scf=(tight,noincore,xqc) Test 
#IOP(5/87=12) Density=Current Pop=(MK,readradii) iop(6/33=2) iop(6/42=6)

apoCaM-CA-Ng.loop4.water5.frame922 

   -3  1 
C         -9.50004       -4.33930       23.35715
C        -10.70728       -5.22944       23.36392
O        -11.56031       -5.05374       22.51031
H         -8.58866       -4.95909       23.22107
H         -9.55451       -3.60756       22.52146
H         -9.43072       -3.78384       24.31474
N        -10.83874       -6.19278       24.32665
C        -11.90968       -7.18984       24.44528
C        -11.74890       -8.32326       23.43960
O        -11.54269       -9.45656       23.85073
C        -13.33197       -6.58635       24.38600
C        -13.55095       -5.54764       25.44497
O        -13.42659       -5.87285       26.74549
O        -13.86879       -4.41156       25.13313
H        -10.11039       -6.22297       25.05690
H        -11.79803       -7.66294       25.44814
H        -14.07449       -7.39807       24.54422
H        -13.53937       -6.14975       23.38719
N        -11.84849       -8.09320       22.10584
C        -11.76970       -9.09392       21.05579
C        -12.85532      -10.17059       21.21736
O        -12.50545      -11.33777       21.32686
C        -10.32755       -9.70200       20.86745
C         -9.17880       -8.65116       20.91403
C        -10.26596      -10.40758       19.49192
C         -8.53680       -8.52344       22.29935
H        -12.04187       -7.14225       21.78253
H        -11.98353       -8.55657       20.10318
H        -10.11560      -10.47645       21.63772
H         -9.51967       -7.67208       20.51289
H         -8.33138       -8.98683       20.27616
H        -10.42046       -9.67491       18.67011
H         -9.27450      -10.88860       19.34955
H        -11.02678      -11.20577       19.39241
H         -7.69600       -7.80003       22.25760
H         -9.23973       -8.18695       23.07485
H         -8.11808       -9.51000       22.60235
N        -14.19977       -9.91502       21.18829
C        -14.83671       -8.60031       21.10430
C        -16.03128       -8.56458       22.07406
O        -16.37363       -9.60901       22.61487
C        -15.23309       -8.36914       19.63019
C        -15.54661       -6.95213       19.21906
O        -15.88108       -6.73357       18.06633
O        -15.36978       -5.91051       20.05110
H        -14.81967      -10.74144       21.17431
H        -14.11992       -7.82187       21.39616
H        -16.07763       -9.04507       19.37796
H        -14.36589       -8.65817       18.99525
N        -16.69194       -7.41101       22.38663
C        -17.78931       -7.36911       23.33949
C        -19.02497       -6.71433       22.76340
O        -19.58778       -7.21677       21.80126
H        -16.37595       -6.51417       22.00900
H        -17.44386       -6.80738       24.23290
H        -18.07784       -8.38310       23.69089
N        -19.54041       -5.61269       23.37781
C        -20.82902       -5.00604       23.04715
C        -20.95281       -4.39017       21.65405
O        -22.06952       -4.01715       21.31892
C        -21.23391       -3.98909       24.15328
C        -20.17457       -2.96757       24.50332
O        -19.66983       -2.93562       25.75186
O        -19.76296       -2.17135       23.68106
H        -19.03372       -5.25694       24.20179
H        -21.59347       -5.81482       23.07616
H        -21.42994       -4.56971       25.08049
H        -22.18191       -3.47622       23.88099
N        -19.91418       -4.24404       20.77748
C        -20.10433       -3.66531       19.44432
C        -20.53065       -2.19730       19.44871
O        -20.77208       -1.65384       18.38183
H        -18.97122       -4.56539       21.03891
H        -20.86903       -4.26474       18.90389
H        -19.15269       -3.73436       18.87398
N        -20.61015       -1.49138       20.60931
C        -20.94846       -0.08313       20.75935
C        -19.94638        0.79947       20.04674
O        -20.33162        1.76633       19.39965
C        -22.41396        0.23034       20.39225
C        -23.40548       -0.64810       21.17381
C        -24.84803       -0.26694       20.94009
N        -25.83307       -0.96986       21.54435
O        -25.13796        0.67510       20.21602
H        -20.36516       -1.96183       21.47717
H        -20.83250        0.15111       21.84303
H        -22.58054        0.09119       19.30224
H        -22.60540        1.29705       20.64715
H        -23.20023       -0.56176       22.26286
H        -23.26784       -1.70584       20.86706
H        -25.60904       -1.76887       22.15561
H        -26.82189       -0.71690       21.39989
N        -18.61789        0.51671       20.14119
C        -17.56824        1.36183       19.58649
C        -16.55448        1.78541       20.64775
O        -15.75805        2.66206       20.35695
C        -16.86252        0.66461       18.39024
C        -16.23360       -0.68703       18.77557
C        -17.84329        0.46930       17.22558
H        -18.35141       -0.35743       20.61709
H        -18.01527        2.30849       19.20763
H        -16.05116        1.33287       18.02580
H        -15.49861       -0.55993       19.59696
H        -17.00791       -1.41643       19.09533
H        -15.70142       -1.12077       17.90250
H        -18.26086        1.44957       16.91050
H        -17.32126        0.02166       16.35351
H        -18.68076       -0.19763       17.51655
N        -16.48863        1.17849       21.87417
C        -15.50924        1.53055       22.89845
C        -16.25901        1.72886       24.22190
O        -17.46918        1.56456       24.23032
C        -14.46667        0.38387       22.91414
C        -13.09465        0.76784       23.42234
N        -12.04182        0.80897       22.56755
O        -12.91646        1.02387       24.59957
H        -17.09511        0.38192       22.09220
H        -14.98646        2.46762       22.61082
H        -14.31190        0.09447       21.85155
H        -14.86265       -0.51979       23.42616
H        -12.15655        0.59031       21.56665
H        -11.10268        1.06968       22.90000
N        -15.63004        2.09781       25.37768
C        -16.35575        2.23543       26.64281
C        -15.42970        2.81822       27.68615
O        -14.40289        2.22423       27.96019
C        -16.92822        0.87473       27.12130
C        -18.01316        1.06243       28.15895
C        -19.34793        0.78995       27.80719
C        -17.73085        1.51914       29.45844
C        -20.37937        0.98425       28.72563
C        -18.76742        1.70822       30.37998
C        -20.09617        1.44536       30.01305
O        -21.10731        1.63234       30.88468
H        -14.63386        2.32891       25.34932
H        -17.20395        2.93261       26.46163
H        -16.13388        0.18773       27.48027
H        -17.39156        0.36107       26.25870
H        -19.59669        0.44127       26.81207
H        -16.71505        1.72683       29.76450
H        -21.40115        0.78053       28.43103
H        -18.53778        2.06214       31.37702
H        -20.95937        1.95589       31.78424
N        -15.71016        4.01342       28.26818
C        -14.77324        4.68051       29.16488
C        -14.71123        3.96331       30.51255
O        -15.71501        4.02742       31.21031
C        -15.23346        6.14710       29.40937
C        -15.36681        6.97619       28.11663
C        -15.89197        8.35225       28.41749
O        -15.19511        9.18638       29.21164
O        -16.95499        8.72121       27.94189
H        -16.58637        4.48315       28.00283
H        -13.78912        4.71976       28.66391
H        -14.50834        6.64986       30.08717
H        -16.22843        6.13720       29.91056
H        -16.07563        6.49315       27.41280
H        -14.38252        7.05600       27.61118
N        -13.63491        3.27969       31.02009
C        -12.38227        2.89204       30.36156
C        -11.59381        4.04640       29.78486
O        -11.25438        4.97767       30.50070
C        -11.50774        2.09263       31.36797
C        -10.10781        1.68592       30.86676
C        -10.11651        0.90484       29.58433
O        -10.74958       -0.27800       29.49308
O         -9.51503        1.33425       28.61313
H        -13.76024        2.93172       31.98531
H        -12.61915        2.18596       29.54453
H        -12.06643        1.17622       31.66184
H        -11.35330        2.70358       32.28511
H         -9.61475        1.07523       31.65345
H         -9.49502        2.60266       30.72493
N        -11.20527        3.98295       28.47647
C        -10.36230        4.96027       27.82569
H         -9.42750        4.45954       27.49052
H        -10.88655        5.36049       26.93356
H        -10.09118        5.79858       28.49811
H        -11.48634        3.17028       27.90604
Ca       -10.59619       -1.35390       27.50803
O        -12.18403       -1.91278       24.98208
H        -12.29131       -2.09015       24.01428
H        -13.10796       -1.78395       25.31386
O        -13.45157       -0.48367       27.99232
H        -14.08507       -1.09664       27.54280
H        -13.08555        0.07294       27.25986
O         -9.83131        1.10139       25.59784
H        -10.59861        1.68644       25.82015
H        -10.21708        0.38560       25.03318
O         -9.45528       -3.52775       29.13241
H         -9.95891       -4.36377       28.96650
H         -8.64428       -3.81658       29.62020
O        -12.50632       -3.49125       28.41193
H        -12.84601       -3.29425       27.50343
H        -13.24473       -3.22941       29.01647

Ca 1.0



