%chk=apoCaM-CA-Ng.loop2.water3.frame1288.chk
%nprocshared=20
%mem=10GB
%nosave
#b3lyp/svp scf=(tight,noincore,xqc) Test 
#IOP(5/87=12) Density=Current Pop=(MK,readradii) iop(6/33=2) iop(6/42=6)

apoCaM-CA-Ng.loop2.water3.frame1288 

   -2  1 
C         73.22022       55.11989       -3.16743
C         71.81060       55.53549       -3.48897
O         71.32731       55.16674       -4.54941
H         73.86185       56.01704       -3.04328
H         73.23265       54.51394       -2.23726
H         73.64237       54.50165       -3.98894
N         71.05388       56.29896       -2.64815
C         71.49841       56.80936       -1.35301
C         71.50928       58.33501       -1.30429
O         71.78998       58.87551       -0.24277
C         70.65482       56.18778       -0.21643
C         69.18709       56.52139       -0.20187
O         68.41336       56.00023        0.76719
O         68.68580       57.25422       -1.03702
H         70.09489       56.52755       -2.95178
H         72.54084       56.49573       -1.14104
H         71.08121       56.51078        0.75815
H         70.75629       55.08240       -0.27682
N         71.29849       59.10045       -2.41769
C         71.43672       60.55437       -2.39602
C         70.28143       61.26804       -1.70837
O         70.40020       62.46770       -1.49883
C         71.55168       61.09126       -3.82987
H         71.14161       58.63886       -3.32555
H         72.38828       60.80113       -1.87408
H         72.41168       60.61384       -4.34608
H         70.62472       60.86977       -4.40302
H         71.71683       62.19000       -3.82726
N         69.10341       60.63861       -1.42437
C         67.92379       61.34836       -0.93296
C         67.33810       60.71509        0.32134
O         67.83172       59.70039        0.79379
C         66.89233       61.44054       -2.08323
C         66.49029       60.10380       -2.64859
O         66.72367       59.84054       -3.81748
O         65.86218       59.19680       -1.88158
H         68.99510       59.64609       -1.66914
H         68.18205       62.39409       -0.65759
H         67.35305       62.04178       -2.89820
H         65.98163       61.98293       -1.75558
N         66.25401       61.29817        0.91083
C         65.56916       60.78861        2.08681
C         65.01097       59.38443        1.85458
O         64.47803       59.24782        0.57215
H         65.87290       62.16200        0.49760
H         64.72026       61.47112        2.31331
H         66.24952       60.77647        2.96485
N         64.04816       59.00831        2.89613
C         63.26011       57.76924        2.68756
C         61.86062       58.02644        3.22538
O         61.64219       59.04481        3.86924
C         63.87558       56.53088        3.40968
C         65.11244       55.88356        2.75308
N         65.59636       54.76001        3.54812
O         66.15554       56.77090        2.50785
H         64.46582       59.05714        3.85433
H         63.12224       57.55887        1.60517
H         63.11948       55.71619        3.41725
H         64.08569       56.79425        4.46898
H         65.93915       55.11695        4.47043
H         66.40919       54.32886        3.05125
N         60.84048       57.16404        2.94825
C         59.47507       57.38298        3.40730
C         58.53220       57.62961        2.24694
O         58.97672       57.62174        1.10723
H         61.02693       56.33473        2.36211
H         59.41767       58.25831        4.08502
H         59.14355       56.48288        3.97031
N         57.19287       57.82863        2.42559
C         56.51827       57.84300        3.72193
C         55.84650       56.51244        4.00446
O         55.24742       56.38297        5.06289
C         55.52126       59.02323        3.81217
C         56.23728       60.37148        3.71611
O         54.55584       58.94140        2.79484
H         56.60394       57.90765        1.58097
H         57.24629       57.96663        4.54919
H         55.02095       59.01104        4.80997
H         53.87379       58.28511        3.09416
H         56.75410       60.47820        2.73946
H         55.49963       61.19570        3.82002
H         56.98419       60.46700        4.53356
N         55.98438       55.44805        3.16138
C         55.61224       54.09642        3.54145
C         56.85631       53.47657        4.18197
O         57.88904       53.48745        3.52475
C         55.13042       53.30569        2.29266
C         53.89048       53.94538        1.61395
C         54.86950       51.83514        2.63644
C         52.62487       53.99336        2.47859
H         56.56420       55.54323        2.31552
H         54.77475       54.13942        4.25035
H         55.94972       53.31544        1.53829
H         53.65543       53.36518        0.69478
H         54.13802       54.98097        1.29699
H         54.55046       51.27160        1.73444
H         55.81360       51.39163        2.99093
H         54.10641       51.72452        3.43417
H         52.30587       52.97500        2.78103
H         52.77503       54.61739        3.38222
H         51.79902       54.44499        1.89047
N         56.90986       52.97373        5.45460
C         55.77677       52.76354        6.35496
C         55.78298       51.35196        6.91535
O         56.84136       50.76651        7.06940
C         55.73991       53.81665        7.48795
C         56.93540       53.87373        8.40789
O         57.88930       53.12514        8.27303
O         56.94781       54.78009        9.40376
H         57.84164       52.69841        5.80083
H         54.82120       52.86218        5.81715
H         54.83853       53.63247        8.11270
H         55.62843       54.81850        7.02756
N         54.61558       50.78456        7.32841
C         54.53288       49.48838        7.99217
C         53.48721       48.60654        7.30529
O         52.37926       49.09151        7.13519
C         54.07229       49.74926        9.44292
C         54.04105       48.47949       10.25280
C         52.81554       47.90602       10.62761
C         55.24053       47.85219       10.63003
C         52.79151       46.71306       11.35473
C         55.21209       46.66400       11.36480
C         53.98833       46.09249       11.72315
H         53.74641       51.33033        7.22866
H         55.52488       48.99437        8.02824
H         53.06219       50.21578        9.41061
H         54.74630       50.47514        9.94911
H         51.88051       48.37110       10.34110
H         56.19522       48.28341       10.35380
H         51.84415       46.26809       11.62871
H         56.13878       46.18478       11.65248
H         53.96734       45.16877       12.28591
N         53.69644       47.28583        6.97044
C         54.89792       46.50550        7.24271
C         55.98948       46.64803        6.19631
O         57.00656       45.98412        6.31983
C         54.39837       45.04346        7.19804
C         52.91061       45.18266        7.47193
C         52.59932       46.40488        6.62638
H         55.24421       46.72699        8.26907
H         54.46306       44.65534        6.15292
H         54.95430       44.33957        7.85345
H         52.31450       44.28153        7.21283
H         52.75504       45.43790        8.54384
H         52.68219       46.13862        5.54691
H         51.58654       46.81701        6.81842
N         55.78870       47.40581        5.08086
C         56.66396       47.37703        3.91206
C         55.85943       46.89218        2.70601
O         54.64926       46.75410        2.81899
C         57.19626       48.79977        3.65953
C         58.22417       49.27104        4.69623
C         59.57646       48.64097        4.50210
O         60.63510       49.41714        4.19995
O         59.73244       47.43763        4.62680
H         54.93472       47.97546        5.00537
H         57.48668       46.65238        4.05970
H         56.31204       49.45960        3.70547
H         57.64672       48.92509        2.65333
H         57.86315       49.06714        5.72215
H         58.34586       50.36934        4.57204
N         56.43021       46.58334        1.50424
C         57.84974       46.59989        1.21363
H         58.47650       46.88766        2.07687
H         58.16420       45.58143        0.90370
H         58.04730       47.30578        0.38120
H         55.80953       46.27791        0.73826
Ca        65.64770       57.36038        0.38024
O         66.12803       54.16645       -0.00624
H         65.25627       54.11099        0.45936
H         66.15804       53.35579       -0.57323
O         63.53757       55.93366       -0.96527
H         63.38996       55.24976       -1.66512
H         62.72137       56.49352       -0.98048
O         66.61050       55.92659       -2.62551
H         67.42032       55.44147       -2.92506
H         65.88613       55.58674       -3.20808

Ca 1.0



