%chk=apoCaM-CA-Ng.loop2.water5.frame1244.chk
%nprocshared=20
%mem=10GB
%nosave
#b3lyp/svp scf=(tight,noincore,xqc) Test 
#IOP(5/87=12) Density=Current Pop=(MK,readradii) iop(6/33=2) iop(6/42=6)

apoCaM-CA-Ng.loop2.water5.frame1244 

   -2  1 
C         39.78205       24.02965       24.57816
C         40.14660       23.41523       23.25141
O         40.23387       24.15509       22.28212
H         38.83296       23.59351       24.95225
H         40.58080       23.88428       25.32641
H         39.63328       25.12527       24.46680
N         40.34319       22.07482       23.07662
C         40.25431       21.07301       24.14097
C         39.94178       19.67508       23.57137
O         39.74525       19.53844       22.37167
C         41.53380       21.08305       25.02417
C         42.74926       20.62393       24.27946
O         43.29120       21.36447       23.29249
O         43.23564       19.53643       24.54576
H         40.52824       21.75923       22.11157
H         39.38433       21.31347       24.78856
H         41.36633       20.39824       25.88061
H         41.74415       22.07283       25.46559
N         39.84705       18.59037       24.40101
C         39.45227       17.23410       24.00345
C         40.38768       16.51464       23.02408
O         40.11499       15.35792       22.73334
C         38.01067       17.23873       23.47780
H         40.01337       18.73146       25.40733
H         39.44882       16.61364       24.92814
H         37.66308       16.19956       23.29449
H         37.33818       17.69473       24.23580
H         37.92360       17.80878       22.53085
N         41.49838       17.09606       22.48870
C         42.42570       16.41686       21.58318
C         43.81106       16.41581       22.18900
O         44.33132       17.47341       22.50061
C         42.44162       17.03841       20.15340
C         41.96925       18.46733       20.04099
O         40.97729       18.70213       19.36900
O         42.48958       19.47412       20.76000
H         41.73160       18.06193       22.74401
H         42.14614       15.35027       21.43431
H         41.71885       16.45012       19.54349
H         43.43011       16.88296       19.66912
N         44.49278       15.24519       22.33736
C         45.85705       15.17910       22.82884
C         46.82583       14.75494       21.74582
O         48.00616       14.66099       22.05105
H         44.05124       14.36027       22.04303
H         45.89780       14.46461       23.67860
H         46.20205       16.16669       23.20264
N         46.42298       14.49900       20.46241
C         47.34365       14.12488       19.39830
C         47.24624       15.13339       18.27037
O         46.19042       15.26077       17.66475
C         47.01845       12.70735       18.89235
C         47.15090       11.68381       19.99392
N         48.34031       11.47250       20.60591
O         46.17255       11.03619       20.33511
H         45.42726       14.56887       20.20805
H         48.38964       14.11890       19.77115
H         47.71109       12.43197       18.06760
H         45.97940       12.68855       18.49308
H         49.18057       11.99989       20.32834
H         48.42407       10.77470       21.35976
N         48.32539       15.89914       17.94927
C         48.34497       16.87722       16.87433
C         48.57412       18.27606       17.41512
O         48.56335       18.45012       18.62520
H         49.19474       15.78903       18.49332
H         47.40059       16.87682       16.28775
H         49.17985       16.59544       16.19762
N         48.83311       19.34534       16.60625
C         49.00843       19.25903       15.15864
C         50.49069       19.28367       14.79906
O         50.81804       18.97694       13.66101
C         48.24183       20.39032       14.44016
C         46.74163       20.34485       14.74390
O         48.76157       21.63442       14.84020
H         49.01473       20.25394       17.06207
H         48.62242       18.28797       14.78762
H         48.38349       20.25164       13.34148
H         48.66645       22.25465       14.07104
H         46.55429       20.48280       15.83038
H         46.22381       21.15993       14.19492
H         46.31249       19.37261       14.42266
N         51.44166       19.62755       15.71865
C         52.88293       19.54766       15.49279
C         53.50817       18.71030       16.61153
O         52.84180       18.49533       17.61634
C         53.49590       20.97985       15.41251
C         53.19691       21.81415       16.68900
C         52.97881       21.68033       14.14138
C         53.86717       23.18704       16.69586
H         51.14434       19.95470       16.64605
H         53.07518       19.02361       14.53316
H         54.59695       20.89012       15.31184
H         53.56873       21.25970       17.57603
H         52.10434       21.97182       16.80990
H         53.21418       21.06504       13.24656
H         51.87960       21.83307       14.18871
H         53.47031       22.66165       13.99068
H         53.47388       23.83441       15.88654
H         53.65626       23.69401       17.66119
H         54.96300       23.07590       16.57881
N         54.74793       18.14425       16.54836
C         55.61803       18.09014       15.38084
C         57.07943       18.10117       15.82073
O         57.44013       17.36140       16.72477
C         55.25593       16.85245       14.52796
C         55.24846       15.54431       15.27558
O         56.38013       15.04413       15.80352
O         54.20890       14.91199       15.38028
H         55.00620       17.53633       17.34217
H         55.45388       18.95313       14.70690
H         55.94446       16.78043       13.65886
H         54.23244       17.01443       14.12302
N         57.98928       18.89385       15.18230
C         59.40621       18.93657       15.53689
C         59.92052       20.37392       15.49263
O         59.79884       20.98121       14.43827
C         60.23205       18.12871       14.50552
C         61.71216       18.24554       14.81690
C         62.55167       18.99489       13.97311
C         62.25202       17.66271       15.97677
C         63.89997       19.17333       14.29489
C         63.60436       17.83646       16.28991
C         64.42584       18.59622       15.45293
H         57.67773       19.43237       14.36028
H         59.57006       18.46555       16.52446
H         60.02532       18.54224       13.49336
H         59.92898       17.05914       14.49147
H         62.15716       19.46656       13.08187
H         61.62472       17.08419       16.64306
H         64.53444       19.76878       13.65108
H         64.01375       17.39169       17.18764
H         65.46881       18.74163       15.70329
N         60.60600       20.96733       16.52252
C         60.86931       20.41164       17.84017
C         59.76693       20.79162       18.83115
O         59.93805       20.54549       20.01514
C         62.18807       21.10245       18.21085
C         61.95904       22.50628       17.68206
C         61.32158       22.21780       16.32773
H         61.04920       19.31822       17.85460
H         62.47456       21.03719       19.28215
H         63.00523       20.64348       17.60578
H         61.20294       22.99272       18.33721
H         62.85742       23.15752       17.63532
H         60.66927       23.05611       16.00333
H         62.11289       22.03553       15.56583
N         58.61866       21.40703       18.41466
C         57.56365       21.87943       19.30378
C         57.29666       23.35368       19.00446
O         57.12724       23.66721       17.83487
C         56.27592       21.06826       19.05668
C         56.41319       19.58364       19.44159
C         56.57963       19.33159       20.92166
O         56.55592       20.33704       21.81918
O         56.70543       18.18527       21.32008
H         58.46256       21.55577       17.40939
H         57.86057       21.73440       20.34822
H         56.01746       21.13297       17.97701
H         55.43326       21.50401       19.63790
H         57.26907       19.13916       18.89084
H         55.48785       19.05887       19.12905
N         57.21757       24.34339       19.94517
C         57.28672       24.19228       21.38540
H         56.34237       24.57614       21.82685
H         57.40151       23.15709       21.73848
H         58.13010       24.79562       21.77882
H         57.05257       25.30524       19.60824
Ca        44.36513       20.05640       21.83373
O         47.11813       21.88476       22.18720
H         47.36034       22.84044       22.09526
H         47.66874       21.42258       21.50619
O         44.69577       22.29622       19.83190
H         44.14969       21.57596       19.42725
H         45.56629       22.23954       19.36375
O         46.00010       20.29614       24.99343
H         45.95693       19.34915       25.28039
H         46.85606       20.62969       25.36138
O         45.87066       18.19785       19.82526
H         46.46810       18.88350       20.21662
H         45.60553       18.57286       18.94809
O         47.75551       18.72516       22.72913
H         48.56053       18.41232       22.24512
H         48.08406       18.95010       23.63545

Ca 1.0



