%chk=apoCaM-CA-Ng.loop3.water6.frame120.chk
%nprocshared=20
%mem=10GB
%nosave
#b3lyp/svp scf=(tight,noincore,xqc) Test 
#IOP(5/87=12) Density=Current Pop=(MK,readradii) iop(6/33=2) iop(6/42=6)

apoCaM-CA-Ng.loop3.water6.frame120 

   0  1 
C         47.65874       86.97422        2.15893
C         47.70234       88.46770        2.27933
O         46.65919       89.09999        2.20298
H         46.61583       86.62077        2.00857
H         48.27753       86.64784        1.29797
H         48.05568       86.51762        3.09035
N         48.89638       89.10001        2.47900
C         49.05128       90.54051        2.68015
C         48.67144       91.37654        1.45869
O         48.70365       92.59414        1.57696
C         48.26810       91.00613        3.93607
C         48.68022       90.31687        5.21324
O         49.56036       89.47021        5.22679
O         48.07015       90.65120        6.36603
H         49.74905       88.52191        2.53402
H         50.12549       90.75707        2.87513
H         47.18201       90.84965        3.78950
H         48.43417       92.09463        4.08669
N         48.33922       90.82224        0.25262
C         47.93341       91.61459       -0.90538
C         46.53108       91.17755       -1.29004
O         46.30123       90.70899       -2.39692
C         48.97732       91.42287       -2.03476
C         48.75898       92.29009       -3.29373
C         48.92565       93.79648       -3.02468
C         48.66304       94.66693       -4.26598
N         49.59878       94.39767       -5.35894
H         48.36701       89.80006        0.13159
H         47.89452       92.68810       -0.63733
H         48.97658       90.35126       -2.33448
H         49.98880       91.65449       -1.63412
H         47.76103       92.09808       -3.73524
H         49.52217       91.97569       -4.03587
H         49.95043       93.99360       -2.64028
H         48.19631       94.12299       -2.25698
H         48.76409       95.73288       -3.96292
H         47.61979       94.51048       -4.61955
H         50.58410       94.51984       -5.03097
H         49.46073       93.43382       -5.73669
H         49.41412       95.07546       -6.13343
N         45.54494       91.22935       -0.35473
C         44.22642       90.66392       -0.58646
C         43.39781       91.53433       -1.51581
O         43.39443       92.74836       -1.36380
C         43.48427       90.46671        0.74470
C         42.32725       89.51882        0.56033
O         41.17828       89.87556        0.74983
O         42.57034       88.24814        0.19028
H         45.78069       91.57738        0.58815
H         44.37007       89.64310       -1.00858
H         43.17903       91.45427        1.14925
H         44.15843       89.98844        1.48598
N         42.58388       90.95391       -2.43643
C         41.68347       91.68318       -3.31359
C         40.69500       92.55425       -2.56338
O         40.53889       93.70963       -2.93185
H         42.57373       89.92552       -2.50256
H         41.10120       90.93767       -3.89823
H         42.26144       92.29997       -4.03592
N         39.98842       92.06601       -1.50404
C         38.93133       92.81376       -0.82004
C         39.34116       93.27505        0.58274
O         38.50851       93.83982        1.27938
C         37.65653       91.94507       -0.83000
C         37.77482       90.76230        0.13401
N         37.36364       91.14308        1.48107
O         37.05417       89.65243       -0.29989
H         40.19165       91.10901       -1.18324
H         38.68768       93.73465       -1.39322
H         37.51813       91.57490       -1.87030
H         36.75146       92.53838       -0.57549
H         36.36941       91.46581        1.46534
H         37.38189       90.28990        2.07101
N         40.62280       93.14262        1.03356
C         41.08954       93.65443        2.31428
C         40.67449       92.79350        3.48611
O         40.05217       93.29092        4.41194
H         41.33533       92.74693        0.40682
H         40.77291       94.71346        2.44001
H         42.20101       93.64263        2.31112
N         41.04652       91.48401        3.51642
C         40.82718       90.56959        4.63416
C         39.77832       89.54350        4.27937
O         39.31606       89.52080        3.15286
C         42.16943       89.90283        4.98973
C         43.13079       90.92871        5.52627
C         44.23077       91.36398        4.76871
C         42.91706       91.46802        6.80396
C         45.09586       92.33523        5.28418
C         43.79183       92.42337        7.32257
C         44.88375       92.86330        6.56212
O         45.73233       93.79074        7.04835
H         41.54138       91.11381        2.70316
H         40.41566       91.12051        5.50748
H         42.57133       89.42757        4.06574
H         42.05445       89.09800        5.74703
H         44.40935       90.96856        3.77687
H         42.07610       91.13807        7.40160
H         45.93198       92.68095        4.69155
H         43.61697       92.82146        8.31371
H         45.62111       94.17537        7.92958
N         39.28096       88.71376        5.24593
C         38.06174       87.93523        5.03526
C         36.94674       88.93844        4.79587
O         36.32016       88.88449        3.74929
C         37.74316       87.00601        6.24466
C         38.88094       85.98645        6.53163
C         36.40687       86.26197        6.03824
C         39.15671       84.98053        5.40660
H         39.70572       88.73573        6.18327
H         38.17953       87.29157        4.13907
H         37.63472       87.63771        7.15383
H         38.61804       85.41127        7.44593
H         39.82434       86.52842        6.74883
H         36.42339       85.64104        5.11923
H         36.18677       85.61480        6.91326
H         35.56628       86.97119        5.93437
H         38.26799       84.35181        5.19646
H         39.46792       85.49339        4.47729
H         39.98059       84.30339        5.71378
N         36.72419       89.95328        5.68195
C         35.84603       91.07766        5.37477
C         34.37560       90.70960        5.28623
O         33.63170       91.51262        4.74232
C         36.02850       92.21334        6.39382
O         37.36931       92.62211        6.41102
H         37.29789       89.98901        6.53980
H         36.15999       91.47074        4.38004
H         35.73001       91.84670        7.40249
H         35.38967       93.07831        6.10569
H         37.44777       93.28287        7.14726
N         33.87402       89.53957        5.79195
C         32.46309       89.15482        5.69850
C         32.01228       88.96090        4.25023
O         30.81640       88.86253        4.00947
C         31.57965       90.17834        6.43630
H         34.50660       88.89561        6.28199
H         32.31583       88.18571        6.22433
H         31.92211       90.28371        7.48780
H         31.59483       91.17735        5.95742
H         30.52458       89.83217        6.45213
N         32.92043       88.87489        3.23706
C         32.58982       88.81986        1.82243
C         33.09273       87.53803        1.19708
O         34.19669       87.12015        1.51001
C         33.27440       90.00253        1.13279
H         33.92097       88.87411        3.46390
H         31.49592       88.91676        1.64873
H         33.04483       90.00236        0.04627
H         32.91697       90.95690        1.57384
H         34.37775       89.94467        1.26302
N         32.35628       86.90217        0.23706
C         32.80963       85.73366       -0.51871
C         32.89573       84.47090        0.34094
O         33.27842       83.43615       -0.18497
C         34.12352       86.08688       -1.28309
C         34.58677       85.06773       -2.34068
C         33.55266       84.85066       -3.40869
O         33.09978       83.73492       -3.60748
O         33.12613       85.88585       -4.15767
H         31.44414       87.30544       -0.02638
H         32.03667       85.52340       -1.28977
H         34.96227       86.23527       -0.57540
H         33.95965       87.05195       -1.81238
H         34.86016       84.10528       -1.86400
H         35.50621       85.45845       -2.82773
N         32.49004       84.45132        1.64606
C         32.51779       83.25941        2.47123
H         33.13035       83.45321        3.37581
H         31.48266       83.00775        2.78507
H         32.94357       82.38115        1.94212
H         32.11026       85.29784        2.08922
Ca        38.70825       88.08597       -0.15929
O         41.41741       86.87057        3.23992
H         41.78674       86.08993        3.72395
H         41.81394       86.80959        2.33584
O         41.01376       87.76852       -2.16575
H         40.47000       87.32578       -2.86329
H         41.91441       87.36793       -2.26041
O         41.80926       85.28282       -0.10272
H         41.66238       84.44524        0.40387
H         42.79393       85.37944       -0.13873
O         36.97494       86.69733        1.88497
H         36.69831       86.07583        1.16686
H         36.73765       87.59370        1.53946
O         38.45212       85.63231       -1.59490
H         37.54047       85.48770       -1.23703
H         38.46024       85.16063       -2.46440
O         39.20828       84.86044        1.57698
H         38.44161       84.27904        1.34373
H         39.72059       84.33871        2.24382

Ca 1.0



