%chk=apoCaM-CA-Ng.loop2.water5.frame1241.chk
%nprocshared=20
%mem=10GB
%nosave
#b3lyp/svp scf=(tight,noincore,xqc) Test 
#IOP(5/87=12) Density=Current Pop=(MK,readradii) iop(6/33=2) iop(6/42=6)

apoCaM-CA-Ng.loop2.water5.frame1241 

   -2  1 
C         51.02787       34.87271       30.40572
C         51.86023       33.80429       29.75047
O         52.01592       33.85176       28.53913
H         50.15130       34.42438       30.91490
H         51.64621       35.42917       31.14177
H         50.66270       35.60019       29.64931
N         52.48158       32.81797       30.45846
C         52.42203       32.67267       31.91043
C         52.23312       31.19349       32.28606
O         51.95639       30.38747       31.40768
C         53.65026       33.38724       32.52233
C         54.92544       32.68718       32.21329
O         55.75891       33.17365       31.46576
O         55.13285       31.50000       32.79118
H         53.10764       32.18050       29.93989
H         51.55285       33.22309       32.32652
H         53.55847       33.46554       33.62615
H         53.67757       34.42454       32.12259
N         52.34567       30.77350       33.58092
C         52.03695       29.42659       34.07092
C         52.86252       28.25280       33.51508
O         52.58318       27.14952       33.96638
C         50.53627       29.14727       33.87471
H         52.60396       31.46926       34.29557
H         52.21101       29.43072       35.17079
H         49.93581       29.95256       34.34931
H         50.27064       29.08974       32.79911
H         50.24892       28.18672       34.35463
N         53.85046       28.35726       32.56607
C         54.52288       27.17296       32.00110
C         56.07034       27.13169       32.25093
O         56.76813       27.92817       31.33910
C         54.11701       26.95966       30.51981
C         54.36735       28.09190       29.54761
O         54.04842       27.94543       28.37898
O         54.90051       29.26630       29.92988
H         54.09349       29.28279       32.20416
H         54.13669       26.27168       32.52035
H         53.02268       26.76402       30.49811
H         54.63127       26.04931       30.14306
N         56.57371       25.74530       32.17535
C         57.97703       25.59743       32.60832
C         58.97243       25.88500       31.50727
O         58.57871       26.29917       30.42731
H         56.01276       25.18349       32.85755
H         58.13603       24.53335       32.89216
H         58.18982       26.22212       33.50461
N         60.30338       25.64469       31.70901
C         61.31686       25.92686       30.69352
C         60.98610       25.20962       29.39935
O         61.02527       23.98747       29.34932
C         62.72955       25.51585       31.16287
C         63.19056       26.28867       32.37107
N         63.37846       27.62719       32.30374
O         63.41873       25.69672       33.41539
H         60.59719       25.25302       32.61719
H         61.30947       27.02053       30.50307
H         63.46502       25.68998       30.34706
H         62.72586       24.42673       31.39405
H         63.21317       28.13987       31.42552
H         63.70714       28.15124       33.12802
N         60.58464       25.93489       28.32048
C         60.19730       25.31636       27.06402
C         59.45590       26.27998       26.15383
O         59.19270       27.40749       26.54567
H         60.51092       26.95685       28.42895
H         59.48867       24.48501       27.26992
H         61.10581       24.90984       26.57126
N         59.03261       25.91648       24.91443
C         59.41134       24.67975       24.24738
C         60.76691       24.89708       23.60812
O         61.67047       24.10465       23.83592
C         58.33276       24.28862       23.21250
C         58.68644       22.97647       22.49881
O         57.10958       24.12981       23.88543
H         58.52581       26.62586       24.35998
H         59.46226       23.83749       24.97332
H         58.24246       25.10418       22.45754
H         56.39347       24.16023       23.19888
H         58.79036       22.15017       23.23471
H         57.88390       22.71079       21.77896
H         59.63605       23.07868       21.93302
N         60.98401       26.00235       22.83534
C         62.27069       26.32227       22.21827
C         63.39353       26.34688       23.25506
O         63.11074       26.57741       24.42336
C         62.21296       27.66967       21.42322
C         61.86841       28.87139       22.35360
C         61.23973       27.53638       20.23725
C         61.77656       30.21785       21.63414
H         60.19248       26.64367       22.69754
H         62.47663       25.48484       21.51948
H         63.21391       27.86796       20.98293
H         62.66054       28.95951       23.12811
H         60.90188       28.71384       22.87378
H         60.19436       27.38281       20.57258
H         61.27515       28.43746       19.59257
H         61.54052       26.67684       19.60090
H         61.59185       31.01982       22.38023
H         62.71519       30.44333       21.09202
H         60.92814       30.22846       20.91995
N         64.68355       26.01386       22.95141
C         65.17160       25.68173       21.61394
C         66.46404       26.41920       21.29787
O         67.01922       27.07676       22.16402
C         65.29595       24.14918       21.47106
C         66.15478       23.50969       22.52723
O         65.66985       22.68906       23.29093
O         67.45925       23.82368       22.63118
H         65.35071       25.93538       23.73599
H         64.45592       26.00844       20.83877
H         65.68910       23.88318       20.46765
H         64.27170       23.71972       21.54604
N         66.99223       26.34209       20.04305
C         68.22950       26.99373       19.62330
C         67.95603       27.85595       18.38901
O         67.34172       27.33114       17.46993
C         69.24174       25.89053       19.24402
C         70.61153       26.45663       18.95912
C         71.14392       26.43691       17.65922
C         71.37276       27.00829       20.00474
C         72.41175       26.97355       17.41037
C         72.64083       27.53756       19.75281
C         73.15927       27.52282       18.45604
H         66.49833       25.76639       19.34434
H         68.65702       27.58949       20.45468
H         68.84985       25.33686       18.36135
H         69.34327       25.15435       20.07113
H         70.57574       26.01869       16.83794
H         70.98365       27.02622       21.01540
H         72.81530       26.96451       16.40633
H         73.22045       27.95959       20.56365
H         74.14064       27.93592       18.26241
N         68.41481       29.14029       18.22236
C         69.30548       29.87058       19.10964
C         68.55673       30.80983       20.05051
O         69.21550       31.54108       20.77570
C         70.13658       30.68408       18.10974
C         69.06436       31.12347       17.12357
C         68.27740       29.82839       16.94709
H         69.97619       29.22013       19.69921
H         70.74159       31.50515       18.54973
H         70.82728       29.98923       17.57625
H         68.41917       31.87344       17.63336
H         69.43008       31.56805       16.17386
H         67.22086       30.02191       16.66087
H         68.77076       29.20428       16.16901
N         67.19277       30.85505       20.08701
C         66.43444       31.75761       20.94798
C         65.49004       32.60904       20.10908
O         64.98624       32.11873       19.10842
C         65.62137       30.92546       21.95710
C         66.51299       30.12257       22.92102
C         67.29794       30.95431       23.90458
O         67.19301       32.17020       23.94435
O         68.11716       30.33651       24.77580
H         66.65065       30.21294       19.49181
H         67.11370       32.42729       21.50658
H         64.99414       30.20936       21.38432
H         64.94417       31.57399       22.55416
H         67.22367       29.51238       22.33001
H         65.86498       29.43821       23.50869
N         65.14178       33.88178       20.45734
C         65.62756       34.55817       21.64130
H         66.72918       34.68259       21.59137
H         65.16810       35.56691       21.71385
H         65.34976       33.98558       22.55095
H         64.47699       34.39322       19.85586
Ca        56.61370       30.00230       32.13974
O         56.49330       31.75439       28.46807
H         55.51586       31.73212       28.31351
H         56.88259       31.95811       27.58054
O         58.91124       31.31363       33.30903
H         58.53133       30.70485       33.99184
H         59.06948       32.16214       33.79231
O         59.12902       32.39013       29.95988
H         59.40247       32.89557       29.15370
H         59.66446       31.55907       29.92055
O         58.04086       29.24126       28.82761
H         58.35917       29.60139       27.96230
H         58.67801       28.51585       29.04103
O         60.22039       29.29981       31.24038
H         61.07273       29.80372       31.24669
H         60.10234       28.99638       32.17503

Ca 1.0



