%chk=apoCaM-CA-Ng.loop2.water2.frame931.chk
%nprocshared=20
%mem=10GB
%nosave
#b3lyp/svp scf=(tight,noincore,xqc) Test 
#IOP(5/87=12) Density=Current Pop=(MK,readradii) iop(6/33=2) iop(6/42=6)

apoCaM-CA-Ng.loop2.water2.frame931 

   -2  1 
C         -3.07653        6.85110      -14.18710
C         -2.74347        5.45541      -14.62191
O         -2.43883        5.24448      -15.78699
H         -4.11256        6.88055      -13.78913
H         -2.37196        7.16726      -13.38884
H         -2.99649        7.56135      -15.03701
N         -2.77510        4.44503      -13.71197
C         -2.45451        3.05830      -14.02080
C         -1.23076        2.60200      -13.23009
O         -0.91333        1.42150      -13.28468
C         -3.69519        2.19470      -13.69888
C         -3.53067        0.75597      -14.11310
O         -3.33228        0.47118      -15.28382
O         -3.60570       -0.22531      -13.19372
H         -3.03531        4.67075      -12.73825
H         -2.22585        2.93347      -15.10253
H         -4.57257        2.59939      -14.24827
H         -3.91169        2.24953      -12.60935
N         -0.45944        3.47831      -12.51317
C          0.69846        3.04535      -11.73692
C          0.79486        3.80062      -10.41007
O          0.14903        4.83146      -10.27925
C          1.96294        3.29163      -12.56361
H         -0.65106        4.48872      -12.57102
H          0.59221        1.96089      -11.53838
H          2.07182        4.37516      -12.78803
H          2.86815        2.94421      -12.02959
H          1.89581        2.73909      -13.52514
N          1.57917        3.39876       -9.36189
C          2.29325        2.12528       -9.26768
C          1.73216        1.31426       -8.10774
O          0.91498        1.82868       -7.35454
C          3.81894        2.32451       -9.16502
C          4.26973        3.08958       -7.95305
O          5.09496        2.50509       -7.06741
O          3.93864        4.25240       -7.78915
H          1.60121        4.01375       -8.53360
H          2.12572        1.52007      -10.17492
H          4.18156        2.85772      -10.06825
H          4.30251        1.32325       -9.15286
N          2.05740       -0.00168       -7.96330
C          1.38506       -0.86036       -7.00378
C          2.30348       -1.86922       -6.35737
O          2.11852       -3.04730       -6.62902
H          2.67018       -0.44246       -8.66571
H          0.62415       -1.43333       -7.57898
H          0.83135       -0.29338       -6.22411
N          3.26266       -1.56593       -5.43875
C          3.61479       -0.24214       -4.94719
C          2.96099       -0.04808       -3.58883
O          3.11836       -0.90020       -2.72486
C          5.15568       -0.17828       -4.82758
C          5.71938        1.14409       -4.37790
N          7.04400        1.24933       -4.12821
O          4.99948        2.11922       -4.24125
H          3.74589       -2.36549       -4.99709
H          3.27258        0.54899       -5.64842
H          5.61560       -0.41915       -5.81012
H          5.47924       -0.95003       -4.09484
H          7.66537        0.43513       -4.23367
H          7.45305        2.13664       -3.81272
N          2.20753        1.05828       -3.33429
C          1.46839        1.26442       -2.09786
C          1.98827        2.42204       -1.27188
O          1.30320        2.79948       -0.33205
H          2.13414        1.79101       -4.05614
H          1.46753        0.36180       -1.45021
H          0.41292        1.46768       -2.38133
N          3.19944        3.00393       -1.51558
C          3.72472        4.12757       -0.74490
C          4.08525        5.28668       -1.69768
O          3.29999        5.32465       -2.85050
C          4.99726        3.69019        0.02551
C          4.71197        2.58051        1.03819
O          5.97410        3.22864       -0.87633
H          3.79150        2.62947       -2.26341
H          2.96325        4.48855       -0.01901
H          5.38821        4.55318        0.61463
H          6.66673        3.93481       -0.95345
H          4.33034        1.66882        0.53152
H          5.65059        2.31451        1.57130
H          3.96703        2.92341        1.78619
N          4.11923        6.60148       -1.05393
C          4.60727        7.67636       -1.95069
C          6.13720        7.69614       -1.98593
O          6.74337        7.78086       -0.92723
C          3.99847        9.03116       -1.49307
C          4.39654       10.15335       -2.48953
C          2.45938        8.89905       -1.40081
C          3.86435       11.53802       -2.11870
H          4.64950        6.58779       -0.15274
H          4.22243        7.52170       -2.98300
H          4.38369        9.28003       -0.47931
H          4.02992        9.89794       -3.50755
H          5.50351       10.22820       -2.52967
H          1.99106        9.82811       -1.02223
H          2.02592        8.65001       -2.39361
H          2.16878        8.10356       -0.68252
H          4.22123       11.83006       -1.10911
H          4.23041       12.27973       -2.85942
H          2.75634       11.56924       -2.14563
N          6.82252        7.63929       -3.17223
C          8.28406        7.59005       -3.24999
C          8.91602        8.83255       -3.87528
O         10.14228        8.87317       -3.88661
C          8.75708        6.36845       -4.07266
C          8.45515        5.02795       -3.47029
O          9.37928        4.34637       -3.05568
O          7.21951        4.50038       -3.43905
H          6.29302        7.62812       -4.05362
H          8.71795        7.51722       -2.22840
H          9.86703        6.42620       -4.13976
H          8.36379        6.41145       -5.10958
N          8.21230        9.86203       -4.43168
C          8.89042       11.01384       -5.03664
C          7.90276       11.93169       -5.75417
O          6.93704       12.34475       -5.12026
C          9.66297       11.84109       -3.97054
C         10.38121       13.02173       -4.59198
C          9.73414       14.26610       -4.68929
C         11.68471       12.88716       -5.10494
C         10.37230       15.35176       -5.29421
C         12.32239       13.97978       -5.70569
C         11.66528       15.20957       -5.80230
H          7.18233        9.81043       -4.46294
H          9.62697       10.61711       -5.76239
H         10.41202       11.22727       -3.42972
H          8.95458       12.20333       -3.19453
H          8.72868       14.39099       -4.30865
H         12.20393       11.93869       -5.04635
H          9.86082       16.30220       -5.37333
H         13.32428       13.87369       -6.10213
H         12.15583       16.05217       -6.27293
N          8.10435       12.37786       -7.03920
C          7.27984       13.39718       -7.68103
C          5.83811       13.01649       -7.96621
O          5.11721       13.85880       -8.48268
C          7.98626       13.65310       -9.01918
C          9.42924       13.38541       -8.66882
C          9.29817       12.12156       -7.82981
H          7.32154       14.30455       -7.03584
H          7.69475       12.86189       -9.75012
H          7.77594       14.64579       -9.47092
H         10.11590       13.29053       -9.53658
H          9.78350       14.21477       -8.01526
H          9.11393       11.23238       -8.47206
H         10.23426       12.00789       -7.25292
N          5.35789       11.76250       -7.72692
C          4.01363       11.35170       -8.12758
C          2.88937       12.10275       -7.42315
O          1.74512       11.90682       -7.81226
C          3.83637        9.82648       -7.96878
C          3.91386        9.33373       -6.51432
C          3.78254        7.84134       -6.47737
O          4.80608        7.09124       -6.03709
O          2.76032        7.29916       -6.86561
H          5.99569       11.05498       -7.34150
H          3.92297       11.56812       -9.21580
H          4.63176        9.32255       -8.56256
H          2.85497        9.53022       -8.40088
H          3.10732        9.78792       -5.90006
H          4.88996        9.61230       -6.06521
N          3.11033       12.97277       -6.39744
C          2.02549       13.70182       -5.77622
H          1.28938       12.99331       -5.34063
H          2.41784       14.35427       -4.96819
H          1.51966       14.34073       -6.53254
H          4.06138       13.13317       -6.03819
Ca         5.15648        5.09397       -4.09300
O          6.87901        5.12193       -7.11810
H          7.35368        5.92234       -7.45637
H          7.58670        4.56655       -6.70453
O          2.01076        4.54281       -5.32549
H          1.21974        4.96291       -5.74686
H          2.05708        3.63957       -5.72644

Ca 1.0



