%chk=apoCaM-CA-Ng.loop1.water3.frame179.chk
%nprocshared=20
%mem=10GB
%nosave
#b3lyp/svp scf=(tight,noincore,xqc) Test 
#IOP(5/87=12) Density=Current Pop=(MK,readradii) iop(6/33=2) iop(6/42=6)

apoCaM-CA-Ng.loop1.water3.frame179 

   0  1 
C         97.45609       48.81893       12.21911
C         97.80220       50.25145       12.49658
O         97.49373       51.10840       11.67997
H         96.92506       48.72365       11.24736
H         98.38260       48.20964       12.18287
H         96.79394       48.43289       13.02271
N         98.43328       50.59113       13.65634
C         98.74402       51.97773       13.99570
C         99.72892       52.62224       13.02283
O         99.76197       53.84082       12.95810
C         99.22722       52.12182       15.45624
C        100.56217       51.47693       15.72718
O        100.71877       50.27462       15.58584
O        101.58961       52.23155       16.15982
H         98.63897       49.83977       14.33130
H         97.78281       52.53484       13.92679
H         98.46797       51.67956       16.13790
H         99.30444       53.20436       15.69785
N        100.58037       51.87444       12.26282
C        101.49060       52.43806       11.26371
C        100.70263       52.90703       10.05590
O         99.89056       52.12719        9.57689
C        102.48665       51.36223       10.76044
C        103.69347       51.14255       11.68571
C        103.35169       50.67726       13.10197
C        104.63961       50.48949       13.91474
N        104.34306       50.07658       15.28411
H        100.58353       50.85264       12.39864
H        102.09382       53.25417       11.69837
H        102.94194       51.71184        9.80916
H        101.95739       50.41141       10.53039
H        104.25821       52.09936       11.75270
H        104.35529       50.38966       11.20377
H        102.79061       49.71898       13.05667
H        102.73011       51.44578       13.60597
H        105.20603       51.44811       13.93964
H        105.27744       49.71908       13.42704
H        103.81559       49.17384       15.28189
H        105.24167       49.94728       15.80243
H        103.78211       50.81503       15.76570
N        100.92137       54.08902        9.40213
C        101.86822       55.15736        9.72934
C        103.31033       54.67870        9.85453
O        103.92400       54.90236       10.88936
C        101.36061       55.97877       10.93212
C         99.96568       56.51486       10.70011
O         99.34146       57.16384       11.68665
O         99.36935       56.33071        9.65072
H        100.37669       54.23819        8.53713
H        101.87936       55.85702        8.88066
H        102.04273       56.83421       11.12998
H        101.34963       55.35108       11.84063
N        103.94899       54.01685        8.84626
C        103.31190       53.68003        7.58199
C        104.15230       52.71513        6.78515
O        104.52342       51.69559        7.35040
H        104.92128       53.71042        9.01251
H        103.03816       54.60235        7.03049
H        102.39165       53.10603        7.78391
N        104.44198       52.86451        5.46172
C        104.01254       53.97141        4.60680
C        104.73118       55.27254        4.94628
O        105.55242       55.29037        5.85401
C        104.22712       53.59681        3.11429
C        105.67420       53.46423        2.70104
O        106.47135       52.52904        3.25136
O        106.12538       54.19348        1.83271
H        104.94048       52.07540        5.02652
H        102.91595       54.10979        4.73106
H        103.74819       54.36762        2.47443
H        103.69977       52.64185        2.90109
N        104.50651       56.39997        4.20775
C        105.25202       57.62668        4.41884
C        104.86791       58.35762        5.68104
O        105.61847       59.23997        6.07410
H        103.84763       56.37255        3.41694
H        105.08553       58.32848        3.57298
H        106.33704       57.38134        4.42994
N        103.68576       58.12727        6.32767
C        103.31185       58.88853        7.51726
C        104.18812       58.47329        8.69514
O        104.84766       57.44439        8.62740
C        101.79858       58.75512        7.82538
C        100.92846       59.30593        6.69238
O        101.47372       59.45704        8.99668
H        103.02157       57.44221        5.93809
H        103.50113       59.96600        7.30615
H        101.53084       57.68755        7.92438
H        101.41127       58.79100        9.72859
H        101.11559       58.76988        5.73931
H         99.85625       59.17660        6.95267
H        101.12764       60.38831        6.54346
N        104.31942       59.30445        9.76787
C        105.25710       59.07402       10.86871
C        104.59087       59.17140       12.25009
O        105.29641       59.04452       13.24129
C        106.45498       60.07503       10.73553
C        105.99875       61.56085       10.79147
C        107.24044       59.77647        9.44065
C        107.15277       62.56652       10.76018
H        103.80343       60.19606        9.74785
H        105.68884       58.05031       10.80725
H        107.14989       59.88744       11.58396
H        105.43692       61.72882       11.73451
H        105.32947       61.79804        9.93804
H        107.55879       58.71246        9.42117
H        106.62218       59.98015        8.54162
H        108.16493       60.38418        9.37597
H        107.70887       62.51798        9.80167
H        106.74494       63.59577       10.84920
H        107.85018       62.38461       11.60402
N        103.25699       59.41959       12.40070
C        102.61568       59.65693       13.69532
C        102.57141       58.42286       14.58320
O        102.11869       57.38075       14.13319
C        101.14115       60.11055       13.53183
C        100.98296       61.38494       12.69925
O        100.61734       60.35744       14.81506
H        102.67700       59.50481       11.56001
H        103.14448       60.48985       14.21095
H        100.57504       59.28641       13.03442
H         99.63968       60.21512       14.77300
H        101.53152       62.22435       13.17442
H        101.34564       61.25060       11.66142
H         99.90480       61.64695       12.64402
N        102.83965       58.55031       15.91803
C        102.49042       57.53068       16.90980
C        101.42393       58.10562       17.85125
O        101.31535       59.31795       17.95116
C        103.76413       57.06795       17.65348
C        103.50202       55.92383       18.63932
O        104.34286       58.15371       18.33215
H        103.20166       59.45148       16.26469
H        102.04499       56.65064       16.39848
H        104.46614       56.69233       16.87164
H        105.30764       57.94582       18.44209
H        103.03838       55.06212       18.11368
H        104.46257       55.58696       19.08336
H        102.84109       56.25212       19.46753
N        100.57042       57.28265       18.53726
C         99.52770       57.78919       19.44183
C         98.11319       57.45200       18.98355
O         97.18367       57.97564       19.58997
C         99.76042       57.28381       20.88343
C         99.71732       55.74973       21.00635
C         99.90691       55.30166       22.46109
C         99.88946       53.77074       22.62329
N        101.00558       53.12123       21.93038
H        100.66350       56.26826       18.40217
H         99.57261       58.89882       19.47561
H         98.98262       57.72513       21.54679
H        100.75044       57.64722       21.23509
H        100.53091       55.32584       20.38943
H         98.74146       55.36479       20.63771
H         99.07803       55.72328       23.07147
H        100.86696       55.69796       22.85736
H         98.92487       53.35750       22.25329
H         99.96488       53.54191       23.70929
H        100.99915       52.10108       22.15809
H        100.91087       53.21714       20.89482
H        101.91486       53.53048       22.24634
N         97.85071       56.60040       17.95376
C         96.50110       56.30115       17.47901
C         96.15396       54.84762       17.72906
O         96.97960       54.09874       18.23993
C         96.42400       56.63204       15.97864
C         96.57805       58.13825       15.72663
C         96.78724       58.37575       14.26849
O         95.90211       57.96523       13.34355
O         97.84518       58.85113       13.89318
H         98.63155       56.12980       17.47069
H         95.73625       56.90058       18.02145
H         95.45734       56.31032       15.53556
H         97.23753       56.06799       15.46521
H         97.47619       58.51969       16.26106
H         95.68746       58.68847       16.09577
N         94.91241       54.38522       17.41926
C         94.50715       53.02111       17.67195
H         93.45534       52.87373       17.34597
H         95.15849       52.31948       17.10975
H         94.57326       52.80430       18.75955
H         94.21871       55.02667       17.00366
Ca        97.12735       57.55010       11.53000
O         96.70130       54.42107       12.08518
H         97.14811       54.27490       11.21361
H         97.35939       54.93325       12.61888
O         98.45591       60.03809       10.53536
H         98.96813       59.94410        9.69412
H         98.16113       60.98280       10.54275
O         97.28290       57.98066        8.12509
H         97.12593       57.24219        7.48441
H         97.34856       58.79073        7.55967

Ca 1.0



