%chk=apoCaM-CA-Ng.loop1.water5.frame6.chk
%nprocshared=20
%mem=10GB
%nosave
#b3lyp/svp scf=(tight,noincore,xqc) Test 
#IOP(5/87=12) Density=Current Pop=(MK,readradii) iop(6/33=2) iop(6/42=6)

apoCaM-CA-Ng.loop1.water5.frame6 

   0  1 
C         39.13863       40.00930       75.47154
C         37.95779       40.17513       74.55764
O         37.26207       41.17490       74.66773
H         39.84932       40.84883       75.32458
H         38.79215       40.00588       76.52662
H         39.67319       39.05510       75.27799
N         37.66649       39.22604       73.62202
C         36.53256       39.32919       72.70316
C         35.16553       39.21832       73.38897
O         34.16976       39.31494       72.68807
C         36.64439       38.29080       71.56200
C         36.47214       36.86332       72.00315
O         35.55298       36.19854       71.55247
O         37.33742       36.29914       72.86604
H         38.31371       38.43001       73.53213
H         36.59589       40.32353       72.20673
H         37.62930       38.39859       71.05898
H         35.86098       38.52248       70.80592
N         35.03187       39.04242       74.73744
C         33.75160       39.00099       75.43587
C         33.52055       40.34263       76.09495
O         34.41174       40.78904       76.80522
C         33.78268       37.95916       76.57935
C         33.68503       36.48624       76.18056
C         34.80574       35.98604       75.27059
C         34.70334       34.46025       75.12809
N         35.71731       33.93760       74.21718
H         35.87029       39.01199       75.32997
H         32.92305       38.75980       74.75062
H         32.89902       38.13052       77.23111
H         34.68516       38.12333       77.21015
H         32.70451       36.29984       75.68988
H         33.71033       35.90877       77.13185
H         35.79556       36.24408       75.70634
H         34.70578       36.46658       74.27567
H         33.69510       34.18149       74.74840
H         34.84069       33.99597       76.13072
H         36.67294       34.21703       74.53653
H         35.65452       32.89446       74.20091
H         35.53987       34.29373       73.25225
N         32.35505       41.04760       76.00994
C         31.13186       40.72521       75.27488
C         30.56189       39.33581       75.56795
O         30.35693       38.58425       74.62317
C         31.30459       40.96402       73.75986
C         31.85660       42.32859       73.46724
O         32.81809       42.45162       72.72559
O         31.31580       43.41921       74.04265
H         32.31773       41.91707       76.56108
H         30.35713       41.45596       75.59680
H         30.30211       40.87246       73.29335
H         31.94868       40.20132       73.28496
N         30.25067       38.87737       76.81299
C         30.43942       39.57001       78.07449
C         29.13356       39.63977       78.83625
O         28.46646       38.61751       78.91997
H         29.87118       37.91854       76.87454
H         30.90821       40.55491       77.95690
H         31.13520       38.95363       78.68015
N         28.69804       40.75123       79.49642
C         29.42705       42.01179       79.59603
C         29.45590       42.72723       78.26435
O         30.53648       43.07167       77.80943
C         28.79392       42.92634       80.66481
C         28.80000       42.26781       82.01978
O         29.96270       41.88747       82.58464
O         27.75090       42.07262       82.61234
H         27.81530       40.66181       80.02450
H         30.46730       41.80953       79.94159
H         27.75214       43.18836       80.37943
H         29.38406       43.86615       80.73858
N         28.30410       42.98978       77.58483
C         28.27161       43.67027       76.29943
C         27.65167       42.80890       75.22450
O         27.25544       41.68108       75.49348
H         27.40521       42.68956       77.99313
H         29.29189       43.95804       75.96546
H         27.67225       44.59909       76.40225
N         27.55552       43.29399       73.95556
C         26.97819       42.55496       72.83298
C         28.08777       42.22082       71.84515
O         29.19673       42.70183       72.04147
C         25.83101       43.41872       72.23617
C         24.94995       42.71418       71.19886
O         26.36711       44.59519       71.68343
H         27.93387       44.23749       73.76982
H         26.55811       41.59166       73.19678
H         25.16580       43.67561       73.09400
H         25.62217       45.24567       71.59917
H         25.49343       42.51541       70.25697
H         24.53821       41.77242       71.62061
H         24.09707       43.37482       70.93434
N         27.88886       41.40202       70.76939
C         28.96322       41.05661       69.83900
C         28.79226       41.85944       68.55422
O         28.77244       41.31681       67.45956
C         29.09085       39.49861       69.70802
C         30.38995       39.03463       68.99949
C         27.87114       38.85010       69.01837
C         31.66137       39.34169       69.79872
H         26.95389       41.01314       70.60264
H         29.91944       41.42289       70.25709
H         29.12789       39.07845       70.73868
H         30.46386       39.46716       67.98146
H         30.35921       37.92774       68.89209
H         26.92766       39.07911       69.55043
H         27.77074       39.16795       67.96214
H         27.97935       37.74418       69.02285
H         32.54151       38.92541       69.26521
H         31.82898       40.42862       69.92378
H         31.60499       38.86227       70.80058
N         28.67558       43.21459       68.65125
C         28.57815       44.12209       67.51302
C         29.86066       44.10436       66.69434
O         29.77689       44.05424       65.47669
C         28.21136       45.56183       67.96953
C         29.27223       46.25106       68.83966
O         26.99517       45.50770       68.67277
H         28.64951       43.62190       69.59523
H         27.72759       43.80190       66.86815
H         28.07243       46.17350       67.04688
H         26.60801       46.42194       68.66085
H         29.46887       45.67397       69.76121
H         30.22173       46.38020       68.28472
H         28.91599       47.26188       69.13062
N         31.08178       44.10978       67.31473
C         32.38693       44.07590       66.64858
C         32.69115       45.38963       65.93585
O         31.82558       46.24832       65.83156
C         32.52489       42.82912       65.71783
C         32.28825       41.52860       66.48649
O         33.80796       42.76875       65.15116
H         31.09912       44.10397       68.34597
H         33.15550       43.99481       67.45028
H         31.77116       42.90476       64.90282
H         33.71751       42.35742       64.25133
H         32.37821       40.66339       65.79576
H         33.03799       41.41834       67.29840
H         31.27488       41.51425       66.92750
N         33.94628       45.61924       65.44861
C         34.33686       46.84653       64.76072
C         34.34826       48.03297       65.71398
O         34.14636       49.15439       65.26987
C         35.71840       46.68805       64.08298
C         35.81151       45.47127       63.12603
C         34.76079       45.43951       61.99855
C         34.83818       46.61709       61.01352
N         36.09876       46.62717       60.26941
H         34.65996       44.89330       65.58518
H         33.58831       47.04615       63.96451
H         36.49596       46.55757       64.86825
H         35.95993       47.61785       63.52542
H         35.69381       44.53332       63.70542
H         36.83311       45.42982       62.69618
H         33.74459       45.40778       62.44448
H         34.88325       44.49395       61.42728
H         34.69926       47.58330       61.54428
H         34.00022       46.51048       60.28964
H         36.90620       46.80084       60.90840
H         36.22770       45.71643       59.77068
H         36.06949       47.39544       59.56151
N         34.52689       47.84372       67.05235
C         34.38801       48.90487       68.04956
C         35.51659       49.91665       67.96132
O         36.45899       49.71604       67.20672
C         34.29255       48.26720       69.46104
C         33.02625       47.39076       69.53698
C         32.94026       46.53098       70.75808
O         32.79275       47.05295       71.98776
O         32.89382       45.31740       70.62467
H         34.70928       46.88476       67.38229
H         33.43309       49.44376       67.85823
H         34.23659       49.04019       70.25790
H         35.20338       47.65170       69.63588
H         32.98714       46.69661       68.67422
H         32.12288       48.03445       69.47513
N         35.45366       51.06173       68.69917
C         36.45938       52.10485       68.65500
H         37.30308       51.85479       67.97832
H         35.99297       53.04732       68.29697
H         36.86296       52.27220       69.67519
H         34.63765       51.22110       69.30902
Ca        31.96902       45.45850       73.34979
O         34.88874       44.33733       73.72939
H         35.22091       43.93115       74.56898
H         35.51193       44.01331       73.03154
O         32.75747       44.61192       76.34209
H         31.81083       44.87869       76.22897
H         33.05030       45.08696       77.15908
O         33.84668       47.26219       75.11570
H         33.26438       48.03260       75.33388
H         34.29384       47.03876       75.97031
O         29.57117       46.44535       72.15620
H         28.67732       46.79652       72.39139
H         29.48206       45.46258       72.23934
O         30.19157       47.35385       74.99661
H         29.43615       46.71400       74.97285
H         30.53357       47.29940       75.92384

Ca 1.0



