%chk=apoCaM-CA-Ng.loop1.water1.frame789.chk
%nprocshared=20
%mem=10GB
%nosave
#b3lyp/svp scf=(tight,noincore,xqc) Test 
#IOP(5/87=12) Density=Current Pop=(MK,readradii) iop(6/33=2) iop(6/42=6)

apoCaM-CA-Ng.loop1.water1.frame789 

   0  1 
C         24.99396        2.93902       16.03125
C         23.96309        2.17719       16.80602
O         24.07250        0.96357       16.91245
H         25.77006        2.25309       15.62912
H         24.50650        3.46501       15.18419
H         25.48216        3.68319       16.69446
N         22.92385        2.83857       17.38896
C         21.89156        2.15694       18.16158
C         21.16099        1.16324       17.26413
O         20.53957        1.57323       16.29463
C         20.96835        3.19552       18.86123
C         20.18684        4.07630       17.91812
O         20.42435        5.26978       17.82473
O         19.18658        3.53186       17.21184
H         22.88644        3.86503       17.29090
H         22.39793        1.60059       18.98178
H         21.62121        3.83933       19.49083
H         20.25219        2.68228       19.53851
N         21.28863       -0.18020       17.46239
C         20.71443       -1.14328       16.53081
C         19.21506       -1.23529       16.74214
O         18.79872       -1.54715       17.84996
C         21.37298       -2.53170       16.69277
C         21.06618       -3.43249       15.48034
C         21.72736       -4.81161       15.61190
C         21.66976       -5.63373       14.30947
N         20.30371       -5.87470       13.84231
H         21.89056       -0.51762       18.22946
H         20.96760       -0.80858       15.49887
H         21.06116       -3.00598       17.64920
H         22.47745       -2.39692       16.71761
H         21.47039       -2.93016       14.57305
H         19.96908       -3.55711       15.36102
H         21.24670       -5.37025       16.44413
H         22.80401       -4.67986       15.85750
H         22.17025       -6.61032       14.49399
H         22.24154       -5.10674       13.51292
H         20.34101       -6.49667       13.00220
H         19.74085       -6.34317       14.58787
H         19.85022       -4.97770       13.55606
N         18.34364       -1.01649       15.71686
C         16.89568       -1.17389       15.88096
C         16.21387       -1.54994       14.57196
O         16.83054       -1.43539       13.52247
C         16.29987        0.09234       16.53754
C         16.54983        1.33408       15.72956
O         17.39406        2.24906       16.22730
O         16.01872        1.50766       14.64436
H         18.73785       -0.81023       14.78857
H         16.73815       -2.05780       16.53740
H         16.79194        0.21581       17.52664
H         15.21236        0.02224       16.72724
N         14.96810       -2.10483       14.52550
C         14.10952       -2.39847       15.66388
C         14.01282       -3.88353       15.89033
O         14.76777       -4.63826       15.29169
H         14.61493       -2.39919       13.60282
H         13.10508       -1.97384       15.45008
H         14.46470       -1.97187       16.61586
N         13.11550       -4.38166       16.78638
C         13.00556       -5.81041       17.06589
C         12.55661       -6.63728       15.86134
O         12.61237       -7.85367       15.96202
C         12.08448       -6.07014       18.27761
C         10.66642       -5.61063       18.06096
O          9.98175       -6.10169       17.17763
O         10.13870       -4.66450       18.86061
H         12.52340       -3.71463       17.30626
H         14.02141       -6.16579       17.35213
H         12.50653       -5.53393       19.15551
H         12.07927       -7.15530       18.51891
N         12.11063       -6.06642       14.70055
C         11.74392       -6.84877       13.52617
C         12.65009       -6.57000       12.34541
O         12.47396       -7.22559       11.32518
H         12.02503       -5.04379       14.62834
H         10.69170       -6.62338       13.24940
H         11.81129       -7.93627       13.73500
N         13.62856       -5.62098       12.38779
C         14.53063       -5.32505       11.28712
C         14.23152       -3.93647       10.76674
O         13.51732       -3.18505       11.42387
C         16.00176       -5.40766       11.78159
C         16.34584       -6.78407       12.35734
O         16.88793       -5.11980       10.73073
H         13.73541       -5.03982       13.22435
H         14.36510       -6.04231       10.45265
H         16.12315       -4.65084       12.59605
H         17.69784       -4.71055       11.13571
H         16.23713       -7.56761       11.57873
H         17.39613       -6.78301       12.72141
H         15.68778       -7.02800       13.21791
N         14.72915       -3.52424        9.57056
C         14.51198       -2.17570        9.05775
C         13.01557       -1.88098        8.83495
O         12.68324       -0.71558        8.68146
C         15.42816       -1.89750        7.81739
C         16.93764       -2.18869        8.10837
C         15.28506       -0.45886        7.28600
C         17.54198       -1.41582        9.28833
H         15.29505       -4.19321        9.02768
H         14.83652       -1.47590        9.85886
H         15.12268       -2.57943        6.99309
H         17.53013       -1.95922        7.19608
H         17.09763       -3.26673        8.30796
H         15.52502        0.28747        8.07130
H         15.96625       -0.30149        6.42246
H         14.26069       -0.26919        6.91166
H         17.47411       -0.32052        9.13463
H         17.04480       -1.68908       10.24206
H         18.61523       -1.68312        9.38953
N         12.05195       -2.85637        8.90851
C         10.61943       -2.55846        8.95649
C          9.84125       -3.24481        7.85137
O         10.00390       -4.43740        7.63919
C         10.02473       -2.93138       10.34239
C         10.03738       -4.42900       10.67322
O         10.71772       -2.24627       11.35297
H         12.32885       -3.84094        9.01285
H         10.44841       -1.46383        8.86883
H          8.95171       -2.62274       10.36110
H         10.40888       -1.30303       11.32719
H          9.42439       -5.00681        9.95207
H         11.07006       -4.82795       10.68193
H          9.59018       -4.58828       11.67706
N          8.90543       -2.53685        7.15773
C          7.99420       -3.12443        6.18125
C          7.22516       -1.99804        5.50187
O          7.40515       -1.80134        4.30821
C          7.06080       -4.18680        6.85585
C          6.04013       -4.78321        5.88500
O          6.36687       -3.64520        7.95138
H          8.81634       -1.52896        7.36057
H          8.59737       -3.63379        5.39637
H          7.67281       -5.04699        7.21025
H          6.96241       -3.71296        8.74324
H          6.55484       -5.26715        5.02967
H          5.43070       -5.55025        6.41162
H          5.35044       -3.99952        5.50582
N          6.36347       -1.21197        6.20684
C          5.64588       -0.07841        5.64351
C          5.83169        1.11299        6.56152
O          5.55537        0.98734        7.74802
C          4.16628       -0.45804        5.46885
C          3.36571        0.66580        4.79152
C          1.98238        0.17156        4.35541
C          1.19262        1.28883        3.66112
N         -0.07432        0.78258        3.13471
H          6.18869       -1.42811        7.19743
H          6.02691        0.16370        4.62636
H          3.69764       -0.73506        6.43894
H          4.14474       -1.35172        4.80561
H          3.90649        0.99927        3.87814
H          3.27325        1.53028        5.48503
H          1.41040       -0.20003        5.23324
H          2.12118       -0.66756        3.63791
H          1.78980        1.70277        2.81790
H          0.99655        2.10860        4.38763
H          0.10998        0.04907        2.41144
H         -0.65402        0.37948        3.90580
H         -0.59810        1.56901        2.68718
N          6.27899        2.31166        6.08885
C          6.50176        3.44308        6.97917
C          7.70525        3.17187        7.88323
O          7.50285        3.13954        9.08844
C          6.57596        4.77795        6.20555
C          6.72361        5.97364        7.16288
C          6.70185        7.27792        6.42160
O          5.71915        7.60155        5.77348
O          7.75946        8.10889        6.48719
H          6.43246        2.42675        5.07518
H          5.59436        3.55516        7.61800
H          5.62462        4.89037        5.63934
H          7.38981        4.79050        5.46214
H          7.68264        5.88875        7.71833
H          5.89018        5.97350        7.89896
N          8.97660        2.93577        7.43632
C          9.39455        2.91884        6.05000
H         10.47063        2.64967        5.98920
H          8.82290        2.16424        5.47387
H          9.30279        3.92129        5.59684
H          9.70542        2.73510        8.13914
Ca        17.93133        4.31399       15.52169
O         19.05716        1.39000       13.10558
H         19.78031        0.71622       13.04486
H         18.24348        0.90700       12.81394

Ca 1.0



