%chk=apoCaM-CA-Ng.loop1.water3.frame36.chk
%nprocshared=20
%mem=10GB
%nosave
#b3lyp/svp scf=(tight,noincore,xqc) Test 
#IOP(5/87=12) Density=Current Pop=(MK,readradii) iop(6/33=2) iop(6/42=6)

apoCaM-CA-Ng.loop1.water3.frame36 

   0  1 
C         77.99878       59.72424       66.99969
C         77.71465       58.81584       68.15934
O         77.99790       59.18000       69.29201
H         78.71477       59.23235       66.30979
H         77.05552       59.93916       66.45257
H         78.43153       60.68662       67.34686
N         77.10725       57.61672       67.94576
C         76.72811       56.72625       69.03867
C         77.90600       55.95770       69.64248
O         77.71887       55.32388       70.66515
C         75.63297       55.73436       68.57902
C         76.10718       54.70032       67.59198
O         76.05161       53.39458       67.91858
O         76.52023       55.02792       66.49195
H         76.82221       57.39484       66.98074
H         76.25773       57.35601       69.82343
H         74.78000       56.29686       68.14125
H         75.25151       55.19892       69.46559
N         79.10770       55.86831       69.01244
C         80.17312       54.95793       69.44488
C         80.94692       55.50338       70.64779
O         81.33415       56.66079       70.56756
C         81.17648       54.76160       68.27891
C         80.57068       54.18003       66.98063
C         80.04677       52.74307       67.14179
C         79.58597       52.12118       65.81043
N         78.38912       52.76197       65.26617
H         79.21927       56.36468       68.11755
H         79.73241       53.97398       69.66616
H         81.99171       54.08496       68.60514
H         81.63167       55.74579       68.03011
H         81.38218       54.16329       66.22070
H         79.77050       54.84339       66.59910
H         79.21050       52.69937       67.87041
H         80.88177       52.12076       67.52743
H         79.34616       51.05600       65.99614
H         80.41141       52.16134       65.06580
H         77.60252       52.66923       65.94665
H         78.56391       53.76675       65.04460
H         78.11561       52.27379       64.38294
N         81.33334       54.77502       71.75286
C         81.06822       53.36781       72.06806
C         81.38723       52.42265       70.92135
O         80.47788       51.80594       70.38433
C         79.71484       53.18645       72.78232
C         79.77411       53.86558       74.14700
O         78.88790       54.80909       74.50460
O         80.64175       53.54851       74.94651
H         81.93313       55.26546       72.43519
H         81.76476       53.03407       72.86637
H         79.54483       52.10299       72.96787
H         78.88682       53.56103       72.15108
N         82.67416       52.16985       70.53292
C         83.85102       52.69819       71.20086
C         84.82329       53.29874       70.22226
O         84.40484       54.11955       69.41963
H         82.83788       51.49361       69.77728
H         84.30509       51.86068       71.76112
H         83.61061       53.48911       71.92992
N         86.15874       53.01434       70.23952
C         86.82151       52.20552       71.26686
C         86.83045       50.70697       70.95366
O         87.30979       49.94599       71.78298
C         88.26063       52.72948       71.49041
C         89.13239       52.63659       70.26434
O         89.64158       53.75696       69.71678
O         89.39033       51.55294       69.76569
H         86.74621       53.53804       69.57179
H         86.31995       52.37434       72.24406
H         88.74400       52.17055       72.32039
H         88.19628       53.79683       71.79965
N         86.40013       50.21809       69.75550
C         86.59564       48.83634       69.33329
C         85.74906       47.78982       70.03313
O         84.97998       48.09868       70.93180
H         86.03202       50.87006       69.04824
H         87.67061       48.57186       69.44075
H         86.34154       48.77364       68.25356
N         85.84270       46.49779       69.58520
C         85.07499       45.33419       70.03924
C         83.60738       45.65340       70.27528
O         83.07874       45.37251       71.34204
C         85.80123       44.58873       71.19348
C         85.89992       45.38225       72.50044
O         87.10520       44.25469       70.78922
H         86.48089       46.32530       68.79258
H         85.07482       44.61187       69.19178
H         85.24115       43.65217       71.42542
H         87.02688       43.52717       70.11806
H         84.90120       45.62889       72.91011
H         86.42549       44.76617       73.26141
H         86.47450       46.31862       72.35389
N         82.89624       46.29941       69.31141
C         81.56022       46.82641       69.57072
C         80.47485       45.76636       69.64432
O         80.64949       44.65053       69.17594
C         81.16106       47.93640       68.55430
C         81.03275       47.39445       67.10511
C         82.15761       49.09908       68.65843
C         80.53690       48.44162       66.11099
H         83.38892       46.54952       68.44242
H         81.60339       47.31484       70.57208
H         80.16818       48.33451       68.86364
H         80.29459       46.56439       67.09438
H         82.00266       46.99904       66.74001
H         82.21874       49.41179       69.72002
H         83.17335       48.81110       68.31782
H         81.82126       49.97111       68.06590
H         79.55536       48.83237       66.44063
H         81.25743       49.27834       66.00894
H         80.41434       47.97754       65.11040
N         79.29797       46.10798       70.23932
C         78.10304       45.27388       70.31941
C         76.89177       46.02001       69.75167
O         76.13209       45.40929       69.01490
C         77.85922       44.77775       71.76272
C         77.64198       45.88488       72.79592
O         78.95868       43.99470       72.15761
H         79.27029       47.03268       70.68714
H         78.23944       44.34305       69.72157
H         76.93646       44.14707       71.73337
H         78.60397       43.20730       72.64808
H         76.75432       46.49705       72.54014
H         77.46191       45.42431       73.79042
H         78.53747       46.53550       72.87140
N         76.68587       47.35342       70.01009
C         75.60626       48.18783       69.47466
C         74.27792       47.88627       70.16164
O         74.19486       46.94236       70.93468
C         75.53733       48.11467       67.91160
C         76.89783       48.36985       67.24804
O         74.59683       49.01509       67.38516
H         77.36028       47.85679       70.59916
H         75.84654       49.23833       69.75595
H         75.21050       47.10082       67.60555
H         74.90900       49.93458       67.59450
H         77.27232       49.38370       67.50344
H         77.64608       47.61670       67.57000
H         76.79327       48.29509       66.14421
N         73.19296       48.68310       69.92961
C         71.87082       48.46286       70.50443
C         71.27770       49.71965       71.14216
O         70.11649       49.67035       71.52864
C         70.93473       47.90817       69.41452
C         70.78351       48.79949       68.16484
C         69.85135       48.15517       67.12755
C         68.37622       48.15884       67.56442
N         67.54874       47.43604       66.60114
H         73.28799       49.47097       69.27737
H         71.90413       47.67853       71.29233
H         69.95036       47.72013       69.88658
H         71.33864       46.92454       69.08789
H         71.78026       48.90091       67.68694
H         70.41750       49.81537       68.42733
H         70.19824       47.11653       66.93244
H         69.92554       48.72459       66.17547
H         68.02771       49.21322       67.64436
H         68.24471       47.67825       68.55409
H         67.65281       47.84644       65.64545
H         67.83066       46.42830       66.58657
H         66.54774       47.49891       66.89634
N         71.99434       50.86684       71.32536
C         71.39851       52.06212       71.92788
C         70.41470       52.74159       70.98679
O         70.26452       52.30929       69.85213
C         72.48244       53.05752       72.37544
C         73.29769       53.67842       71.23269
C         74.33453       54.54703       71.85166
O         74.02772       55.53804       72.49568
O         75.60566       54.13928       71.81086
H         72.99663       50.86823       71.09217
H         70.86948       51.75471       72.85749
H         73.17030       52.52271       73.06966
H         72.01142       53.87867       72.95791
H         72.67297       54.27063       70.53128
H         73.80781       52.87817       70.65702
N         69.73032       53.84703       71.40005
C         68.82322       54.59354       70.55296
H         67.81425       54.60435       71.01389
H         69.18762       55.63921       70.46324
H         68.74469       54.16465       69.53242
H         69.86229       54.19510       72.36089
Ca        77.01522       54.91509       73.33653
O         79.40822       57.26743       73.22750
H         80.03424       57.44747       73.97355
H         79.35271       58.12284       72.73369
O         76.31720       58.42811       72.29818
H         75.50232       58.63908       71.77649
H         76.88465       59.23432       72.20646
O         74.77800       54.64692       75.25988
H         74.24619       53.96263       75.73749
H         74.30151       55.49859       75.42716

Ca 1.0



