%chk=apoCaM-CA-Ng.loop2.water4.frame1456.chk
%nprocshared=20
%mem=10GB
%nosave
#b3lyp/svp scf=(tight,noincore,xqc) Test 
#IOP(5/87=12) Density=Current Pop=(MK,readradii) iop(6/33=2) iop(6/42=6)

apoCaM-CA-Ng.loop2.water4.frame1456 

   -2  1 
C         36.35736       98.12714       74.29266
C         36.75784       96.74452       73.82480
O         37.95150       96.48408       73.85444
H         35.28742       98.38029       74.24821
H         36.68260       98.26266       75.34479
H         36.87899       98.87930       73.66381
N         35.89811       95.78841       73.35368
C         34.44631       95.90757       73.24227
C         33.98999       95.99766       71.79603
O         32.80745       96.23703       71.59096
C         33.74253       94.75570       73.99927
C         33.98144       93.36951       73.44897
O         34.66274       93.18573       72.45397
O         33.41540       92.31290       74.06152
H         36.32556       94.90755       73.03056
H         34.09352       96.83445       73.71493
H         32.64505       94.93345       73.98748
H         34.07908       94.77573       75.05805
N         34.85111       95.84147       70.74362
C         34.43838       96.01987       69.35994
C         34.53464       94.71139       68.60123
O         35.11657       94.68412       67.52533
C         35.31289       97.11550       68.72964
H         35.83804       95.59900       70.91064
H         33.37743       96.34433       69.30542
H         35.22380       98.05900       69.30777
H         36.38103       96.80019       68.74189
H         35.01230       97.31025       67.67898
N         33.96496       93.57598       69.10521
C         33.98699       92.29684       68.39402
C         33.25976       91.16907       69.11288
O         32.88059       91.28312       70.26931
C         35.42953       91.84061       68.03191
C         36.50289       92.14292       69.06021
O         37.42921       92.86308       68.72231
O         36.51218       91.66794       70.32443
H         33.49356       93.63487       70.01990
H         33.41673       92.43348       67.44756
H         35.72216       92.38261       67.10699
H         35.45034       90.76799       67.74655
N         32.99950       90.03268       68.40359
C         32.36816       88.83665       68.92754
C         33.32959       87.99360       69.73330
O         34.44064       88.41751       70.00741
H         33.24326       90.01763       67.40120
H         32.08539       88.20687       68.05601
H         31.43638       89.07645       69.48465
N         32.97246       86.72710       70.08157
C         33.83107       85.80878       70.83433
C         35.17908       85.57832       70.14235
O         35.35531       85.96946       68.99618
C         33.06676       84.46183       70.97924
C         33.76136       83.39302       71.78192
N         34.01669       83.56941       73.09782
O         34.08464       82.34709       71.23784
H         32.03696       86.40424       69.78621
H         34.01940       86.26377       71.83153
H         32.88089       84.06957       69.95291
H         32.07867       84.64618       71.45313
H         33.74120       84.43932       73.57497
H         34.48769       82.82994       73.64007
N         36.17529       84.91124       70.79454
C         37.43178       84.52972       70.17446
C         38.36076       85.68890       69.87002
O         38.02262       86.82484       70.16991
H         36.02167       84.59779       71.76203
H         37.20027       83.96145       69.24886
H         37.97824       83.86227       70.87647
N         39.58165       85.49498       69.28206
C         40.07963       84.19338       68.82785
C         41.34684       83.74969       69.55695
O         41.78500       82.63484       69.30714
C         40.30894       84.23105       67.29868
C         39.03466       84.63637       66.54456
O         41.33990       85.13550       66.99322
H         40.17459       86.32321       69.11224
H         39.33652       83.39876       69.02627
H         40.59770       83.20231       66.97621
H         41.74371       84.83448       66.13731
H         38.20382       83.93867       66.78062
H         38.72504       85.66853       66.81729
H         39.21860       84.61164       65.44998
N         41.98846       84.54534       70.46167
C         43.20004       84.16095       71.18563
C         42.91790       84.28503       72.68395
O         42.48454       85.35978       73.08028
C         44.37169       85.10195       70.77757
C         44.63972       85.12604       69.24706
C         45.65754       84.74276       71.53906
C         45.06760       83.79023       68.62759
H         41.62226       85.48982       70.64837
H         43.52239       83.13900       70.92456
H         44.09875       86.14280       71.06219
H         45.44315       85.86767       69.04266
H         43.72788       85.47969       68.72122
H         45.50248       84.83761       72.63243
H         45.97724       83.70067       71.32901
H         46.47513       85.43646       71.25255
H         44.28289       83.01923       68.74732
H         45.24003       83.93340       67.53999
H         46.01393       83.42142       69.07216
N         43.16520       83.31469       73.61844
C         43.75988       81.99759       73.36896
C         44.28391       81.35683       74.66616
O         44.06950       81.88477       75.74688
C         42.74264       81.05564       72.66980
C         41.47979       80.86349       73.46930
O         40.40340       81.19874       73.00027
O         41.52263       80.30515       74.69402
H         42.97224       83.58486       74.59418
H         44.65860       82.13470       72.73174
H         43.20345       80.06264       72.48481
H         42.45745       81.45687       71.68070
N         44.99825       80.19337       74.60887
C         45.48438       79.47179       75.78523
C         46.99945       79.33342       75.72082
O         47.47807       78.88258       74.69038
C         44.80016       78.08615       75.82131
C         45.12946       77.30122       77.07629
C         46.41010       76.75205       77.28354
C         44.14367       77.11217       78.06131
C         46.69999       76.05112       78.45713
C         44.43847       76.41005       79.23370
C         45.71635       75.88327       79.43322
H         45.18568       79.77816       73.68434
H         45.17550       79.98129       76.71417
H         45.04377       77.48117       74.92072
H         43.70488       78.28087       75.79647
H         47.18929       76.85916       76.54257
H         43.14881       77.51887       77.92999
H         47.68917       75.63874       78.60952
H         43.67574       76.27773       79.98978
H         45.94352       75.34266       80.34273
N         47.83331       79.60681       76.78240
C         47.44762       80.03570       78.12368
C         46.76584       81.38040       78.16456
O         45.70038       81.49697       78.74987
C         48.78301       80.12226       78.88280
C         49.58980       79.04040       78.20887
C         49.24917       79.28905       76.74306
H         46.81237       79.24629       78.58386
H         49.30911       81.07656       78.65164
H         48.68931       80.04295       79.98692
H         50.67651       79.05035       78.43849
H         49.16322       78.05762       78.51393
H         49.79956       80.16790       76.33998
H         49.48655       78.37513       76.15680
N         47.34303       82.44551       77.54708
C         46.77948       83.78604       77.57260
C         46.96595       84.36321       78.97217
O         48.10877       84.48660       79.39109
C         47.50898       84.68135       76.54433
C         47.39323       84.13585       75.10523
C         48.20466       84.93664       74.12268
O         48.89524       86.02745       74.50908
O         48.27020       84.57171       72.96097
H         48.22006       82.28324       77.03142
H         45.71320       83.73829       77.26609
H         48.58662       84.73565       76.81699
H         47.08251       85.70846       76.57787
H         46.32662       84.12104       74.79377
H         47.77658       83.09674       75.05454
N         45.93644       84.73595       79.78343
C         44.54025       84.62490       79.42968
H         44.32160       85.24033       78.53321
H         44.27526       83.56535       79.24047
H         43.91379       84.98944       80.27208
H         46.16220       85.11561       80.71668
Ca        35.12102       90.44392       71.61058
O         37.50717       91.72465       73.35391
H         38.07926       91.16108       72.77463
H         37.34263       92.54149       72.81957
O         32.30223       89.19415       72.93306
H         31.93382       90.09683       72.76007
H         31.63270       88.57520       72.54690
O         35.45670       89.76186       74.96824
H         36.42985       89.59362       75.04060
H         35.22943       90.25823       75.79423
O         36.82517       88.14036       72.48256
H         36.43832       87.51846       73.14843
H         37.73490       88.33640       72.82068

Ca 1.0



