%chk=apoCaM-CA-Ng.loop1.water1.frame818.chk
%nprocshared=20
%mem=10GB
%nosave
#b3lyp/svp scf=(tight,noincore,xqc) Test 
#IOP(5/87=12) Density=Current Pop=(MK,readradii) iop(6/33=2) iop(6/42=6)

apoCaM-CA-Ng.loop1.water1.frame818 

   0  1 
C         49.39605       65.73308       54.94728
C         50.56069       65.22238       54.15045
O         50.55073       64.07034       53.74194
H         48.62734       64.94255       55.07795
H         49.74381       66.06239       55.94965
H         48.93760       66.59740       54.42229
N         51.61625       66.04461       53.90483
C         52.80965       65.64822       53.16431
C         54.00618       65.59790       54.11988
O         54.20807       66.51055       54.90792
C         52.97884       66.45265       51.85054
C         52.89422       67.95646       51.87488
O         52.66925       68.64030       53.00584
O         53.04526       68.57149       50.83136
H         51.57759       66.99378       54.30222
H         52.68839       64.60892       52.79011
H         52.16628       66.12787       51.16473
H         53.94626       66.15063       51.39198
N         54.73646       64.44203       54.18461
C         55.61230       64.04020       55.29147
C         56.83642       64.91714       55.54863
O         57.46663       64.71262       56.57724
C         56.01582       62.55737       55.05837
C         56.63383       61.81628       56.25368
C         56.87779       60.34363       55.86924
C         57.44002       59.48347       57.01152
N         56.47969       59.31342       58.10413
H         54.53576       63.72777       53.46767
H         54.98097       64.08386       56.20669
H         56.69309       62.49832       54.17704
H         55.08371       61.99918       54.81394
H         55.92058       61.87939       57.10104
H         57.59997       62.27097       56.55309
H         57.60771       60.32226       55.03016
H         55.93240       59.87793       55.51234
H         58.38507       59.92572       57.39541
H         57.67594       58.47865       56.59460
H         56.88807       58.66573       58.81593
H         56.27643       60.22515       58.56994
H         55.59316       58.89229       57.74123
N         57.24829       65.90614       54.70395
C         58.40820       66.75589       55.02113
C         58.12656       67.58534       56.29364
O         56.97131       67.64627       56.69387
C         58.74411       67.64970       53.79267
C         57.62659       68.59575       53.44231
O         57.62066       69.17678       52.36942
O         56.61995       68.77354       54.31539
H         56.74358       66.04146       53.81550
H         59.27030       66.07828       55.18262
H         58.90014       66.96169       52.93160
H         59.67734       68.23016       53.91540
N         59.07409       68.26124       57.00986
C         60.50900       68.19426       56.80996
C         61.04574       66.81494       57.11407
O         60.27931       65.91490       57.43174
H         58.75134       68.83683       57.80376
H         60.99888       68.90045       57.51535
H         60.78040       68.50895       55.78478
N         62.38224       66.58109       57.03205
C         62.96619       65.25660       57.18110
C         63.93171       65.20864       58.34847
O         64.87663       65.98590       58.38180
C         63.68478       64.89757       55.86861
C         64.27686       63.51649       55.91223
O         63.48302       62.44593       56.10628
O         65.47871       63.35927       55.76956
H         63.00921       67.36846       56.80197
H         62.17399       64.49202       57.34111
H         64.48386       65.64545       55.66516
H         62.95480       64.93801       55.03117
N         63.79593       64.24486       59.30563
C         64.79166       64.02234       60.33824
C         64.86739       65.09956       61.39533
O         65.78267       65.02640       62.20116
H         63.01756       63.57119       59.23690
H         65.78209       63.91419       59.84548
H         64.57533       63.06584       60.86322
N         63.92102       66.07692       61.51656
C         63.95679       67.07117       62.58898
C         63.74291       68.47796       62.05049
O         63.48532       68.64617       60.86835
C         62.91351       66.70433       63.67819
C         61.47153       66.70084       63.15968
O         63.19889       65.43054       64.19748
H         63.10880       66.07203       60.88438
H         64.95303       67.06576       63.08334
H         62.95702       67.44752       64.50708
H         64.00700       65.52363       64.76725
H         61.33450       65.93887       62.36534
H         60.77955       66.45732       63.99354
H         61.19327       67.69408       62.75435
N         63.83699       69.54377       62.89955
C         63.57837       70.92683       62.50298
C         64.86293       71.73082       62.63978
O         65.28192       72.36207       61.67832
C         62.44633       71.55724       63.37632
C         61.23347       70.60141       63.52337
C         62.02039       72.90667       62.75825
C         60.12381       71.14568       64.42760
H         64.08681       69.35952       63.88084
H         63.23916       70.96038       61.44350
H         62.84020       71.73477       64.40171
H         61.58415       69.66541       64.00587
H         60.80900       70.34950       62.52796
H         61.27274       73.42789       63.38761
H         62.88735       73.59136       62.65867
H         61.58194       72.74380       61.74874
H         59.63766       72.03673       63.98293
H         59.34119       70.36895       64.55924
H         60.53214       71.40614       65.42779
N         65.56060       71.70699       63.81039
C         66.81630       72.40569       64.05156
C         66.72519       73.15547       65.36288
O         66.23000       72.60170       66.33747
C         67.98195       71.39408       64.12942
C         68.16972       70.67331       62.77889
O         69.16456       72.05647       64.53399
H         65.21110       71.11047       64.57528
H         67.06087       73.11513       63.22810
H         67.75683       70.62379       64.89836
H         69.79628       72.13974       63.77323
H         67.25667       70.10829       62.50053
H         68.39026       71.41176       61.97611
H         69.01751       69.96056       62.84667
N         67.29495       74.38260       65.48597
C         67.33033       75.12307       66.73809
C         66.74313       76.50139       66.50461
O         65.75432       76.83805       67.13921
C         68.77671       75.11712       67.29519
C         68.87001       75.75847       68.68168
O         69.66465       75.75118       66.41163
H         67.78058       74.78029       64.66678
H         66.70831       74.61140       67.50780
H         69.06402       74.04271       67.40123
H         70.56542       75.36868       66.58077
H         69.90860       75.66399       69.06552
H         68.59929       76.83355       68.64014
H         68.19265       75.23550       69.39070
N         67.28744       77.33504       65.57189
C         66.73372       78.63817       65.22219
C         66.37367       78.66849       63.74500
O         66.71657       77.74628       63.01764
C         67.71165       79.76196       65.63956
C         69.13070       79.62175       65.05382
C         70.08786       80.65853       65.65672
C         71.52705       80.42053       65.17428
N         72.45810       81.34692       65.81757
H         68.11550       77.01696       65.05259
H         65.78654       78.80694       65.77924
H         67.79533       79.71648       66.74786
H         67.28954       80.75544       65.37287
H         69.10244       79.71445       63.94631
H         69.54111       78.62751       65.32082
H         70.07253       80.55525       66.76443
H         69.75817       81.68603       65.38963
H         71.57895       80.54393       64.07007
H         71.83241       79.37923       65.42474
H         72.20898       82.33388       65.57966
H         72.43387       81.21598       66.85550
H         73.42725       81.14740       65.47912
N         65.61490       79.68667       63.24668
C         65.17485       79.74328       61.85545
C         64.40909       78.47727       61.45484
O         64.83259       77.85453       60.49104
C         64.37091       81.03871       61.58728
C         63.95282       81.17872       60.11444
C         63.20342       82.46131       59.89087
O         62.05561       82.43824       59.47563
O         63.79704       83.64459       60.13910
H         65.31844       80.43529       63.89128
H         66.08217       79.80975       61.21201
H         65.01394       81.90516       61.85757
H         63.47068       81.09150       62.22425
H         63.30361       80.32334       59.82538
H         64.85373       81.17333       59.46415
N         63.31406       77.98269       62.10644
C         62.71782       78.54565       63.29867
H         61.87201       77.90407       63.62635
H         63.45484       78.57561       64.12591
H         62.30248       79.54877       63.10406
H         62.89008       77.11390       61.74393
Ca        54.54936       69.39726       53.87374
O         54.93575       71.57500       51.95012
H         55.72538       70.97894       51.98107
H         54.18878       70.98140       51.68536

Ca 1.0



