%chk=apoCaM-CA-Ng.loop3.water5.frame455.chk
%nprocshared=20
%mem=10GB
%nosave
#b3lyp/svp scf=(tight,noincore,xqc) Test 
#IOP(5/87=12) Density=Current Pop=(MK,readradii) iop(6/33=2) iop(6/42=6)

apoCaM-CA-Ng.loop3.water5.frame455 

   0  1 
C         69.57872       50.22877       95.22826
C         69.29563       48.76347       95.06185
O         68.25084       48.30808       95.50330
H         70.55647       50.50553       94.77959
H         68.78273       50.82344       94.73532
H         69.60991       50.48478       96.30585
N         70.20381       47.95827       94.44185
C         70.04769       46.52353       94.24391
C         69.90038       45.82024       95.58232
O         68.93381       45.09849       95.79065
C         68.89352       46.22263       93.25699
C         68.87122       44.77345       92.84641
O         67.78888       44.01277       93.09784
O         69.83070       44.28381       92.27110
H         71.08217       48.37942       94.10228
H         70.98662       46.15516       93.77212
H         69.03063       46.82863       92.33615
H         67.91750       46.50023       93.70999
N         70.84694       46.00108       96.54633
C         70.79666       45.33603       97.84290
C         70.67238       46.35147       98.96490
O         71.39909       46.27614       99.94680
C         72.00006       44.37064       97.97997
C         73.38029       45.05108       97.85695
C         74.50836       44.01528       97.88336
C         75.87953       44.69211       97.74671
N         76.95195       43.69849       97.72751
H         71.63031       46.63938       96.34574
H         69.87986       44.71195       97.91494
H         71.91100       43.61661       97.16712
H         71.93580       43.83250       98.95110
H         73.52387       45.77913       98.68275
H         73.45743       45.59133       96.89165
H         74.36839       43.30914       97.03499
H         74.47072       43.44419       98.83603
H         76.03594       45.38845       98.60049
H         75.91488       45.28196       96.80305
H         77.87203       44.18878       97.64852
H         76.93973       43.13802       98.61029
H         76.83624       43.06348       96.90421
N         69.73621       47.33915       98.88343
C         69.51520       48.29695       99.95666
C         68.74319       47.62206      101.07900
O         67.80910       46.88637      100.78855
C         68.73458       49.52246       99.45081
C         68.77555       50.60404      100.49487
O         69.84651       51.09098      100.82132
O         67.65633       51.03166      101.09566
H         69.17544       47.42283       98.02170
H         70.50329       48.68261      100.29812
H         67.69456       49.23876       99.18625
H         69.21623       49.93153       98.53950
N         69.05427       47.84496      102.38495
C         68.38495       47.16429      103.48340
C         66.87806       47.34958      103.53189
O         66.22159       46.43779      104.01568
H         69.81809       48.49712      102.61345
H         68.82029       47.47920      104.45560
H         68.58801       46.07550      103.37849
N         66.25210       48.48028      103.08409
C         64.79199       48.62843      103.09807
C         64.19688       48.81846      101.69969
O         62.98138       48.89650      101.59527
C         64.36489       49.69949      104.13112
C         64.78200       51.12402      103.88045
N         64.52239       52.06538      104.81935
O         65.34744       51.43950      102.84849
H         66.82765       49.25730      102.73065
H         64.32579       47.69120      103.46923
H         64.79881       49.39304      105.10814
H         63.25844       49.68935      104.23391
H         64.04791       51.81289      105.69928
H         64.80033       53.04666      104.67655
N         64.97808       48.85983      100.57980
C         64.46186       48.92025       99.21720
C         64.78202       50.23711       98.54549
O         64.68447       50.31711       97.32859
H         65.99925       48.82722      100.67218
H         63.36499       48.75786       99.16194
H         64.94650       48.09457       98.65010
N         65.10270       51.33463       99.28233
C         65.43908       52.63529       98.71819
C         65.45687       53.66225       99.83820
O         66.15742       53.47774      100.82229
C         66.79818       52.57016       97.99088
C         67.28911       53.93869       97.58329
C         66.55657       54.74166       96.69348
C         68.48880       54.43053       98.12316
C         67.01556       56.02078       96.36039
C         68.94431       55.70648       97.79062
C         68.20723       56.50842       96.90937
O         68.63271       57.74614       96.58700
H         65.07667       51.24970      100.30763
H         64.65424       52.93804       97.99024
H         66.72800       51.91425       97.09742
H         67.53546       52.11441       98.67727
H         65.62863       54.38342       96.26623
H         69.06897       53.82846       98.81113
H         66.44147       56.63617       95.67960
H         69.86753       56.07053       98.22337
H         69.44697       58.11999       96.95365
N         64.68666       54.77765       99.74869
C         64.53014       55.72255      100.84554
C         63.71449       55.05403      101.94263
O         64.08669       55.15759      103.10236
C         63.88054       57.04748      100.34741
C         64.72178       57.72561       99.22267
C         63.66013       58.04136      101.50559
C         66.15456       58.11839       99.61500
H         64.15293       54.93708       98.88036
H         65.52392       56.00155      101.25691
H         62.88058       56.81349       99.91867
H         64.19191       58.64396       98.88917
H         64.78788       57.05451       98.34160
H         64.61201       58.29264      102.01625
H         63.19360       58.97525      101.12633
H         62.97777       57.62047      102.26526
H         66.64940       58.61124       98.75237
H         66.16339       58.83474      100.46117
H         66.76155       57.22849       99.87787
N         62.62092       54.29087      101.63706
C         61.85509       53.58181      102.65849
C         60.97722       54.51351      103.48113
O         60.43991       54.06384      104.48269
C         61.01619       52.45721      102.03398
O         60.08149       52.98122      101.12621
H         62.37712       54.15225      100.64469
H         62.57622       53.08539      103.34101
H         60.47769       51.88880      102.82283
H         61.71181       51.74044      101.53322
H         60.22583       52.52257      100.25737
N         60.79247       55.82131      103.12876
C         60.03241       56.79019      103.90923
C         60.64563       56.93135      105.29295
O         59.94300       56.81730      106.28971
C         58.53812       56.42346      103.93656
H         61.22940       56.17695      102.26919
H         60.12026       57.77598      103.39985
H         58.36350       55.45543      104.45043
H         57.95799       57.20841      104.46612
H         58.14973       56.34276      102.89873
N         61.99178       57.11495      105.41323
C         62.69603       57.14687      106.68695
C         63.64890       58.32366      106.73517
O         64.51024       58.42643      105.87093
C         63.47567       55.84372      106.85222
H         62.56044       57.14243      104.55306
H         61.97805       57.20128      107.53534
H         62.76923       54.98581      106.83371
H         64.21234       55.71398      106.03124
H         64.00755       55.84073      107.82734
N         63.55441       59.25174      107.72895
C         64.41609       60.42393      107.84831
C         64.28638       61.28577      106.60355
O         65.28371       61.59452      105.96445
C         65.89157       60.04408      108.14098
C         66.05270       59.19256      109.40706
C         67.50849       58.95124      109.69697
O         68.32818       59.99112      109.94744
O         67.95405       57.81509      109.71717
H         62.81237       59.14201      108.43745
H         64.05538       61.02650      108.71204
H         66.46497       60.98901      108.27406
H         66.33298       59.49304      107.28260
H         65.53126       58.22024      109.26633
H         65.60435       59.71418      110.27903
N         63.05265       61.68722      106.19030
C         62.82946       62.47608      104.99600
H         62.30057       63.41252      105.26738
H         63.77558       62.74336      104.47975
H         62.20018       61.89567      104.28908
H         62.22422       61.40226      106.73397
Ca        67.94864       52.49338      102.78900
O         67.56354       51.27773      105.48147
H         67.63425       50.34648      105.80950
H         67.68930       51.84013      106.28629
O         66.80205       54.79899      104.24556
H         66.76920       55.21975      103.35011
H         66.69207       55.55063      104.87939
O         69.72434       53.93954      104.64169
H         69.82115       54.90113      104.85513
H         70.28519       53.47429      105.31155
O         70.33447       50.95089      103.83295
H         71.06174       50.53741      103.30380
H         70.13453       50.29064      104.54278
O         68.91195       54.90080      101.44254
H         68.45720       55.74767      101.20716
H         69.76893       54.92841      100.94820

Ca 1.0



