%chk=apoCaM-CA-Ng.loop1.water3.frame429.chk
%nprocshared=20
%mem=10GB
%nosave
#b3lyp/svp scf=(tight,noincore,xqc) Test 
#IOP(5/87=12) Density=Current Pop=(MK,readradii) iop(6/33=2) iop(6/42=6)

apoCaM-CA-Ng.loop1.water3.frame429 

   0  1 
C        106.00570       74.94708       73.66257
C        105.61876       75.43987       72.29902
O        105.18509       74.65334       71.46908
H        107.07989       75.16782       73.84316
H        105.39820       75.46601       74.43366
H        105.84659       73.85227       73.75225
N        105.75720       76.76011       72.00387
C        105.42112       77.35797       70.71240
C        106.41365       77.01076       69.60152
O        106.34148       77.64899       68.56387
C        105.34378       78.89637       70.86172
C        104.29414       79.29902       71.86065
O        104.63449       80.02189       72.94393
O        103.12691       78.98345       71.68783
H        106.08125       77.38172       72.76215
H        104.41016       77.03454       70.39722
H        105.06383       79.35879       69.88998
H        106.33432       79.29866       71.16702
N        107.34845       76.02265       69.71055
C        108.36490       75.76448       68.69851
C        108.11117       74.44898       67.97090
O        107.91672       73.45258       68.65320
C        109.74479       75.71045       69.38858
C        110.16136       77.08593       69.93359
C        111.51105       77.06005       70.66841
C        111.44397       76.28976       71.99874
N        112.71624       76.36822       72.71497
H        107.38051       75.42698       70.54493
H        108.37709       76.58311       67.97473
H        110.52195       75.38682       68.66680
H        109.70398       74.94867       70.19447
H        109.38649       77.49265       70.61809
H        110.25259       77.77726       69.06654
H        111.78793       78.11211       70.89628
H        112.29755       76.63098       70.00858
H        111.19866       75.22162       71.82223
H        110.64462       76.73264       72.63413
H        112.62769       75.85832       73.62372
H        113.47552       75.92496       72.14886
H        112.95786       77.36660       72.91246
N        108.17629       74.29966       66.60261
C        108.48769       75.32996       65.60320
C        109.75379       76.10929       65.97862
O        109.68228       77.31562       66.16336
C        107.25519       76.22830       65.34165
C        106.10799       75.51845       64.67285
O        105.08495       76.13507       64.42198
O        106.20650       74.22998       64.29878
H        108.06768       73.34153       66.23506
H        108.70192       74.83923       64.62761
H        107.54251       77.03902       64.64424
H        106.89345       76.66357       66.28836
N        110.96481       75.50874       66.13892
C        111.19797       74.11429       65.81717
C        112.60579       73.64229       66.13754
O        113.34622       74.34911       66.80527
H        111.74891       76.09729       66.45646
H        111.02080       74.01855       64.72540
H        110.50639       73.45195       66.37287
N        113.08157       72.45061       65.66841
C        112.33890       71.60913       64.73478
C        112.77256       71.92380       63.31672
O        113.76415       72.61653       63.12355
C        112.43756       70.11161       65.09488
C        113.81895       69.51016       64.99611
O        114.88186       70.23555       64.59708
O        113.97498       68.33150       65.27085
H        114.06651       72.22000       65.86782
H        111.25903       71.85030       64.78787
H        111.77020       69.53638       64.41675
H        112.06469       69.97655       66.13362
N        112.01759       71.50706       62.26713
C        112.32897       71.83003       60.88651
C        112.39746       73.32494       60.65254
O        113.40327       73.79617       60.14157
H        111.16237       70.96037       62.45319
H        111.53044       71.41137       60.23688
H        113.29179       71.35456       60.59846
N        111.35542       74.12945       61.00359
C        111.31583       75.56792       60.74435
C        111.29571       76.35708       62.04007
O        110.59529       75.97208       62.96414
C        110.11206       75.92763       59.83516
C        108.74099       75.57659       60.42901
O        110.24050       75.26639       58.60292
H        110.54697       73.69489       61.47270
H        112.21999       75.89181       60.18314
H        110.11242       77.03049       59.66257
H        110.94603       75.74271       58.09132
H        108.57539       76.09436       61.39490
H        107.94292       75.89877       59.72672
H        108.63402       74.48333       60.58108
N        112.00738       77.52033       62.14642
C        112.02190       78.35029       63.34795
C        111.20529       79.61218       63.10574
O        111.70095       80.71927       63.25595
C        113.48198       78.60133       63.85523
C        114.37975       79.35462       62.82907
C        114.11943       77.26074       64.26641
C        115.74729       79.75208       63.39270
H        112.52305       77.85732       61.32063
H        111.48785       77.83712       64.17684
H        113.40028       79.22774       64.77245
H        113.89650       80.29969       62.51783
H        114.53560       78.74067       61.91818
H        113.48025       76.74267       65.00826
H        114.24814       76.59790       63.38461
H        115.10503       77.41125       64.74966
H        116.36192       78.86476       63.64204
H        116.30315       80.33869       62.63085
H        115.62301       80.38310       64.29884
N        109.88483       79.48896       62.79027
C        108.97776       80.62315       62.62630
C        107.97350       80.69722       63.77062
O        107.17685       81.62567       63.78494
C        108.26179       80.55463       61.25381
C        107.35446       79.32231       61.09690
O        109.22520       80.56215       60.23294
H        109.49333       78.53811       62.72392
H        109.54891       81.57677       62.65990
H        107.62575       81.46747       61.16908
H        108.76527       80.86156       59.40530
H        107.93924       78.38377       61.13304
H        106.58006       79.29579       61.89074
H        106.83643       79.35981       60.11595
N        107.95978       79.76400       64.76895
C        107.05192       79.75639       65.91112
C        105.59939       79.57812       65.45884
O        105.32699       79.58144       64.26709
C        107.30365       80.99727       66.81679
C        108.78482       81.08144       67.22228
O        106.53413       80.90790       67.98644
H        108.64433       79.00253       64.74757
H        107.30572       78.86922       66.52403
H        107.02382       81.91845       66.25942
H        106.51780       81.81174       68.39709
H        109.08686       80.16680       67.77782
H        109.43845       81.19231       66.33177
H        108.95068       81.96323       67.87632
N        104.61124       79.39459       66.37663
C        103.19446       79.26960       66.05033
C        102.58704       77.96018       66.56251
O        101.38541       77.78690       66.40838
C        102.44928       80.54830       66.51473
C        102.79427       81.05634       67.92645
C        102.07450       82.38544       68.21651
C        102.63363       83.12193       69.44709
N        102.51461       82.34306       70.67693
H        104.86172       79.36545       67.37201
H        103.03408       79.23706       64.94975
H        101.35232       80.41771       66.39014
H        102.76364       81.35883       65.81859
H        103.88206       81.26827       67.96188
H        102.54348       80.29349       68.69338
H        100.98345       82.20395       68.32438
H        102.22603       83.07618       67.35724
H        102.07916       84.07936       69.56467
H        103.70484       83.37208       69.27241
H        103.10311       81.48414       70.61363
H        102.86618       82.91922       71.47573
H        101.51602       82.08818       70.84980
N        103.35240       76.94987       67.07731
C        102.81164       75.63729       67.43322
C        101.83450       75.73346       68.59078
O        102.20649       76.21704       69.64961
C        103.95677       74.64989       67.79257
C        103.45117       73.24090       68.17748
C        102.70370       72.56636       67.05871
O        103.35181       72.14924       65.95477
O        101.50622       72.35509       67.16394
H        104.36903       77.08157       67.14788
H        102.29907       75.21873       66.53887
H        104.53056       75.05455       68.65277
H        104.65316       74.56509       66.93170
H        102.78883       73.33214       69.06444
H        104.30523       72.59527       68.47287
N        100.57883       75.21785       68.46971
C         99.62680       75.16838       69.56120
H         98.69919       75.70164       69.27091
H         99.37894       74.10652       69.77639
H        100.02363       75.62242       70.49350
H        100.28939       74.79739       67.57415
Ca       105.60630       72.05483       65.90995
O        104.36452       73.25919       61.70832
H        105.28189       73.52566       61.44740
H        104.11697       73.89028       62.42993
O        105.01796       70.24448       61.65760
H        105.80833       69.65018       61.70550
H        104.32694       69.70310       61.19944
O        102.18196       71.25597       63.14798
H        101.56279       71.04467       63.89124
H        102.12784       70.46924       62.54928

Ca 1.0



