%chk=apoCaM-CA-Ng.loop1.water3.frame245.chk
%nprocshared=20
%mem=10GB
%nosave
#b3lyp/svp scf=(tight,noincore,xqc) Test 
#IOP(5/87=12) Density=Current Pop=(MK,readradii) iop(6/33=2) iop(6/42=6)

apoCaM-CA-Ng.loop1.water3.frame245 

   0  1 
C         48.59439       16.28288      104.92578
C         47.92446       15.06032      105.48722
O         46.85920       15.18316      106.07384
H         49.53958       16.02427      104.40171
H         47.91698       16.77254      104.19501
H         48.82913       16.99657      105.74228
N         48.50154       13.83625      105.34414
C         47.89115       12.59534      105.80842
C         48.33568       12.23337      107.22195
O         48.04416       11.13131      107.64976
C         48.26230       11.44279      104.84429
C         47.77964       11.67083      103.43704
O         46.98199       10.89612      102.93259
O         48.24359       12.70689      102.71288
H         49.41144       13.77592      104.86024
H         46.78488       12.67150      105.79592
H         47.78890       10.50913      105.21177
H         49.36419       11.29180      104.83335
N         49.05784       13.07684      108.00841
C         49.63701       12.66146      109.28492
C         49.09323       13.48502      110.43188
O         48.94696       14.68510      110.24395
C         51.16574       12.79506      109.16095
C         51.67436       11.81221      108.08598
C         53.19685       11.70571      108.00761
C         53.87807       13.00651      107.56936
N         55.32134       12.80571      107.44902
H         49.27372       14.02819      107.67614
H         49.41573       11.60502      109.50113
H         51.64599       12.55510      110.12853
H         51.44093       13.84175      108.90809
H         51.27065       12.08943      107.08717
H         51.29878       10.79486      108.33489
H         53.43441       10.91592      107.26157
H         53.59280       11.38244      108.99479
H         53.68354       13.80991      108.31190
H         53.46884       13.32636      106.58507
H         55.77012       13.70018      107.14822
H         55.72072       12.51659      108.37168
H         55.52196       12.06858      106.73404
N         48.80400       12.98631      111.68026
C         49.00226       11.63492      112.23184
C         50.45426       11.18600      112.15863
O         50.82535       10.54705      111.18506
C         48.03016       10.53526      111.75239
C         46.60720       10.96122      111.90365
O         46.19523       11.60604      113.01111
O         45.83507       10.81305      110.97507
H         48.45909       13.67869      112.36547
H         48.73885       11.71617      113.30723
H         48.19278        9.65045      112.40207
H         48.20885       10.21939      110.70499
N         51.35947       11.45078      113.14286
C         51.00668       12.08899      114.40269
C         52.19589       12.28540      115.32856
O         53.32633       12.08306      114.90899
H         52.32843       11.13563      112.98490
H         50.28963       11.40973      114.91212
H         50.53034       13.07767      114.22222
N         52.04414       12.63638      116.63924
C         50.76148       12.83040      117.30313
C         50.48795       11.62589      118.18414
O         51.27804       11.32505      119.06691
C         50.71705       14.18593      118.04546
C         51.77234       14.37939      119.10652
O         51.77966       13.62375      120.22046
O         52.60199       15.26604      118.98355
H         52.89459       12.68797      117.22195
H         49.94014       12.89033      116.56111
H         49.71755       14.31900      118.51376
H         50.83765       14.98445      117.28019
N         49.39028       10.85306      117.95053
C         49.06722        9.65923      118.71208
C         49.02902        8.45536      117.80579
O         49.76003        7.50451      118.04679
H         48.74626       11.12164      117.19172
H         48.06905        9.79153      119.18030
H         49.80103        9.48099      119.52844
N         48.17664        8.42258      116.74266
C         48.05853        7.27146      115.85471
C         49.38088        7.00850      115.15318
O         49.86180        7.87133      114.43027
C         46.93752        7.48002      114.80222
C         45.55805        7.65595      115.44914
O         46.88447        6.35890      113.95767
H         47.57873        9.24464      116.57685
H         47.77722        6.38409      116.46499
H         47.18253        8.39222      114.20904
H         46.51927        6.66566      113.08673
H         44.79174        7.78977      114.65644
H         45.29748        6.75599      116.04602
H         45.51961        8.54635      116.10722
N         50.01319        5.81033      115.31805
C         51.26869        5.46604      114.64857
C         51.13529        5.41095      113.12682
O         52.16114        5.26575      112.47453
C         51.84658        4.10405      115.16380
C         50.88643        2.91311      114.86859
C         52.21106        4.20537      116.65672
C         51.46384        1.54424      115.23138
H         49.58432        5.13227      115.96180
H         52.00759        6.26389      114.88814
H         52.80003        3.91732      114.61934
H         50.66512        2.88740      113.78097
H         49.92480        3.03184      115.40804
H         52.72946        3.28896      117.00394
H         52.91432        5.05015      116.81700
H         51.31301        4.36450      117.28765
H         50.73776        0.75408      114.94351
H         52.41399        1.36758      114.68504
H         51.63792        1.45382      116.32238
N         49.92558        5.47146      112.49201
C         49.77478        5.35422      111.04555
C         49.10400        6.57743      110.43945
O         48.58895        7.42413      111.15483
C         48.98794        4.06302      110.69029
C         47.57561        4.02258      111.29360
O         49.69384        2.93718      111.14376
H         49.06980        5.56319      113.04800
H         50.77621        5.28044      110.56765
H         48.86132        4.00060      109.58373
H         50.35912        2.70989      110.44279
H         47.60991        4.00760      112.40271
H         46.97574        4.89507      110.96214
H         47.05553        3.09789      110.96656
N         49.11258        6.72522      109.08551
C         48.49447        7.83651      108.35713
C         46.95968        7.78150      108.43871
O         46.43284        6.90162      109.10467
C         49.01577        7.84951      106.88858
C         48.62390        6.61681      106.06081
O         50.41729        7.97118      106.90822
H         49.63834        6.01766      108.55265
H         48.83974        8.79372      108.80536
H         48.58941        8.73972      106.38566
H         50.68620        8.45797      106.08502
H         49.00951        6.73490      105.02553
H         49.05879        5.68353      106.47132
H         47.52101        6.51183      106.01191
N         46.17830        8.66829      107.74318
C         44.71692        8.62153      107.71466
C         44.04216        9.97806      107.97264
O         42.82230       10.02751      107.88392
C         44.25534        8.03021      106.36408
C         44.62769        8.87331      105.12917
C         44.02398        8.30923      103.83080
C         44.56018        6.91755      103.45333
N         43.96030        6.45248      102.20280
H         46.62838        9.34781      107.12431
H         44.34042        7.91822      108.48940
H         43.14973        7.91281      106.39512
H         44.69946        7.01682      106.27294
H         45.73064        8.94636      105.02291
H         44.22117        9.89923      105.26012
H         44.26677        9.01370      103.00578
H         42.91722        8.26677      103.93283
H         44.32344        6.18019      104.24879
H         45.66550        6.96743      103.33620
H         44.34646        5.50989      101.96660
H         42.92272        6.37303      102.31157
H         44.18348        7.11513      101.42522
N         44.73116       11.10872      108.31334
C         44.06864       12.39651      108.53784
C         43.58695       12.97640      107.22517
O         44.39728       13.18790      106.33427
C         45.01796       13.40075      109.23701
C         44.39209       14.78002      109.53471
C         43.06171       14.73333      110.25820
O         42.08850       15.25274      109.73573
O         42.90548       14.13564      111.46020
H         45.74521       11.04919      108.46019
H         43.21816       12.23887      109.23750
H         45.93753       13.55393      108.62997
H         45.33488       12.97436      110.19802
H         44.24826       15.31620      108.57098
H         45.11586       15.36913      110.13797
N         42.27942       13.30335      107.04930
C         41.80770       13.92300      105.83031
H         40.72019       14.13208      105.90691
H         42.34064       14.88527      105.66669
H         41.98800       13.25009      104.96582
H         41.60331       13.13564      107.80927
Ca        44.50820       13.02650      112.58630
O         42.01434       13.84883      114.61253
H         41.46160       14.61200      114.30874
H         41.43093       13.05723      114.49614
O         43.90378       11.51663      116.00209
H         43.53963       10.62468      116.23081
H         43.34319       12.15150      116.51515
O         42.57651       10.70314      112.96675
H         43.27508       10.33831      112.36728
H         42.58736       10.10332      113.75422

Ca 1.0



