%chk=apoCaM-CA-Ng.loop4.water3.frame469.chk
%nprocshared=20
%mem=10GB
%nosave
#b3lyp/svp scf=(tight,noincore,xqc) Test 
#IOP(5/87=12) Density=Current Pop=(MK,readradii) iop(6/33=2) iop(6/42=6)

apoCaM-CA-Ng.loop4.water3.frame469 

   -3  1 
C         32.04761       45.01176      105.13055
C         31.38577       45.39426      106.41941
O         30.79625       44.52609      107.04293
H         32.80078       44.21927      105.33068
H         31.28856       44.61771      104.42333
H         32.56114       45.87768      104.66470
N         31.47681       46.66887      106.90409
C         30.92475       47.09825      108.18494
C         31.51504       46.25782      109.30227
O         30.80307       45.50250      109.93631
C         29.37988       47.27574      108.14764
C         28.53154       46.08336      107.80894
O         28.45103       45.04053      108.64925
O         27.84757       46.08963      106.79742
H         32.01811       47.36300      106.36743
H         31.27416       48.13630      108.38547
H         29.17322       48.05940      107.38508
H         29.03630       47.67468      109.12734
N         32.85633       46.36712      109.55541
C         33.66349       45.66439      110.55960
C         33.26862       46.04735      111.98463
O         34.03752       46.75033      112.62641
C         33.74454       44.13409      110.29898
C         34.70256       43.40520      111.28478
C         34.16487       43.85975      108.84184
C         36.16936       43.85610      111.22997
H         33.37937       47.03103      108.96275
H         34.69534       46.05524      110.41660
H         32.73672       43.69218      110.43713
H         34.67484       42.31553      111.06582
H         34.33725       43.54191      112.32421
H         33.41446       44.26585      108.13462
H         35.14238       44.32777      108.60462
H         34.24053       42.77122      108.65883
H         36.27771       44.92389      111.50637
H         36.76350       43.26233      111.95559
H         36.60553       43.69147      110.22370
N         32.08983       45.65491      112.54285
C         31.61390       46.15096      113.82484
C         32.26765       45.43553      115.01137
O         32.86050       46.15206      115.80618
C         30.07048       46.20436      113.84862
C         29.48027       47.15421      112.82938
O         30.18781       47.79826      112.06945
O         28.14329       47.29716      112.76094
H         31.45943       45.04475      112.01706
H         31.89369       47.22801      113.91549
H         29.73585       46.54666      114.85181
H         29.64753       45.21558      113.62964
N         32.29310       44.08246      115.24412
C         31.74530       43.01966      114.41482
C         30.24217       42.85290      114.55232
O         29.63309       43.60494      115.29934
H         32.83915       43.76689      116.06172
H         32.18539       42.05853      114.75698
H         32.08101       43.17725      113.37694
N         29.54107       41.86309      113.91297
C         30.13312       40.77724      113.12416
C         30.93918       41.28511      111.93802
O         30.73123       42.41827      111.53099
C         29.03311       39.77152      112.68828
C         28.01460       40.36918      111.75685
O         28.34354       40.74099      110.64361
O         26.72487       40.45978      112.13184
H         28.52023       41.84513      114.06633
H         30.83082       40.24976      113.80966
H         28.51658       39.41201      113.60442
H         29.45669       38.88295      112.18381
N         31.95321       40.56736      111.37213
C         32.35787       39.22161      111.74267
C         33.55836       39.24789      112.64364
O         33.97676       40.31786      113.06595
H         32.53846       41.03586      110.66598
H         32.57898       38.65706      110.81049
H         31.57580       38.66804      112.28567
N         34.16699       38.07761      112.98481
C         35.31440       38.01911      113.88103
C         36.62205       37.86892      113.11733
O         37.66646       37.97050      113.74681
C         35.07378       37.00277      115.02278
C         34.84822       35.53353      114.61487
C         36.04890       34.90562      113.96863
N         37.22946       34.84005      114.62605
O         35.94994       34.43193      112.84842
H         33.82837       37.20602      112.55044
H         35.42742       39.00316      114.38757
H         34.16039       37.32905      115.56721
H         35.91605       37.06244      115.74436
H         33.96374       35.45007      113.94821
H         34.62056       34.94946      115.53231
H         37.32938       35.21968      115.57757
H         38.05009       34.40575      114.18744
N         36.64875       37.74997      111.75467
C         37.86253       37.91615      110.95706
C         38.22858       36.69185      110.13149
O         39.24167       36.75641      109.44934
C         37.71436       39.16756      110.03618
C         37.56794       40.44895      110.86875
C         36.53889       39.05761      109.04449
H         35.76486       37.63009      111.24348
H         38.73842       38.09723      111.61891
H         38.64898       39.27258      109.44181
H         38.44269       40.56987      111.54241
H         37.52591       41.33312      110.19839
H         36.64239       40.42654      111.48278
H         36.63381       38.14810      108.41550
H         35.56014       39.03183      109.56679
H         36.52961       39.94125      108.37222
N         37.49217       35.54434      110.14614
C         37.85522       34.36635      109.36472
C         36.75642       33.95389      108.40112
O         36.97742       32.96358      107.71385
C         38.19066       33.18827      110.30822
C         39.41889       33.44423      111.14660
N         40.62652       33.64761      110.56876
O         39.33028       33.43694      112.36283
H         36.65583       35.48412      110.73915
H         38.74993       34.55993      108.73547
H         38.40096       32.27323      109.71286
H         37.31401       32.97603      110.95912
H         40.73437       33.63492      109.54463
H         41.46336       33.80594      111.14981
N         35.57593       34.63547      108.24555
C         34.54667       34.14643      107.32661
C         33.44104       35.15190      107.01667
O         33.12371       36.00923      107.82971
C         33.95922       32.80110      107.83843
C         33.37422       32.88993      109.23660
C         34.05054       32.30188      110.32265
C         32.15219       33.54155      109.47492
C         33.51989       32.37483      111.61482
C         31.61771       33.60409      110.76498
C         32.29871       33.02488      111.83930
O         31.77020       33.09687      113.07779
H         35.41374       35.51139      108.76348
H         35.04909       33.96776      106.34912
H         34.77687       32.05338      107.85348
H         33.20294       32.39275      107.13444
H         34.99578       31.79468      110.17426
H         31.60032       33.99133      108.66633
H         34.05759       31.92436      112.43992
H         30.67026       34.10238      110.92820
H         32.20789       32.70765      113.84832
N         32.80107       35.05220      105.81097
C         31.65393       35.83094      105.33971
C         31.87411       37.32485      105.14862
O         30.95017       37.94607      104.63806
C         30.41139       35.60605      106.22011
C         29.94525       34.14468      106.21127
C         28.70745       33.94805      107.04588
O         28.20542       32.83913      107.12341
O         28.13798       34.97761      107.70572
H         33.12741       34.31535      105.16534
H         31.40606       35.45113      104.32082
H         29.57148       36.21353      105.81344
H         30.61631       35.95007      107.25553
H         30.74867       33.48388      106.59480
H         29.71583       33.84359      105.16537
N         33.03222       37.97924      105.45018
C         33.20105       39.40024      105.15003
C         33.98605       39.58774      103.86367
O         34.13827       40.72683      103.44339
C         33.89309       40.13766      106.31390
C         33.19359       40.01795      107.67600
C         31.83224       40.65044      107.71316
O         30.90790       40.18278      107.06918
O         31.61739       41.71437      108.50645
H         33.84378       37.45815      105.80908
H         32.21676       39.88173      104.96483
H         33.98911       41.21849      106.06233
H         34.91775       39.72267      106.42449
H         33.83586       40.53563      108.41819
H         33.11870       38.95631      107.99044
N         34.49083       38.52620      103.16680
C         35.21056       38.66063      101.91936
H         36.23356       38.25027      102.04464
H         34.68260       38.08125      101.13306
H         35.28833       39.71558      101.58481
H         34.37023       37.56497      103.51457
Ca        29.54536       42.52496      108.79797
O         26.29732       42.86796      109.37817
H         25.77336       43.16488      110.16409
H         26.23092       41.88047      109.39488
O         28.23462       43.89755      111.49972
H         28.47466       44.84902      111.37468
H         27.96970       43.83010      112.45057
O         27.92942       42.20618      106.31518
H         28.77548       41.69395      106.27058
H         28.21410       43.15428      106.29356

Ca 1.0



