%chk=apoCaM-CA-Ng.loop2.water3.frame795.chk
%nprocshared=20
%mem=10GB
%nosave
#b3lyp/svp scf=(tight,noincore,xqc) Test 
#IOP(5/87=12) Density=Current Pop=(MK,readradii) iop(6/33=2) iop(6/42=6)

apoCaM-CA-Ng.loop2.water3.frame795 

   -2  1 
C         10.26441      -19.90194       81.18124
C         10.43027      -21.10242       82.06415
O         10.61368      -22.19745       81.55129
H          9.35807      -19.33616       81.47820
H         11.15507      -19.24483       81.28360
H         10.17095      -20.20578       80.11656
N         10.41607      -20.95621       83.41893
C         10.66712      -22.05001       84.34491
C         12.04309      -21.83703       84.93646
O         12.18157      -21.48533       86.10060
C          9.56036      -22.15768       85.41973
C          9.75176      -23.35365       86.33276
O          8.90474      -23.54692       87.36023
O         10.65894      -24.15371       86.15294
H         10.27367      -20.01230       83.81150
H         10.68100      -23.02724       83.81161
H          8.56761      -22.26410       84.93164
H          9.54997      -21.23112       86.03274
N         13.12234      -22.10572       84.15628
C         14.50340      -22.03032       84.61070
C         15.32765      -21.21454       83.62184
O         14.81860      -20.92882       82.54554
C         15.00105      -23.48069       84.69554
H         12.94896      -22.46341       83.20279
H         14.55859      -21.55023       85.61188
H         16.05167      -23.58897       85.00401
H         14.37787      -24.03111       85.43360
H         14.88998      -23.97934       83.70866
N         16.60551      -20.78777       83.85411
C         17.37680      -20.95120       85.08729
C         17.09220      -19.85609       86.10186
O         16.61013      -18.79917       85.72399
C         18.87951      -21.09500       84.75587
C         19.50466      -19.92724       84.02372
O         20.66055      -20.01049       83.64269
O         18.81339      -18.80334       83.76256
H         17.05785      -20.29383       83.07485
H         17.08335      -21.88809       85.57785
H         18.98147      -21.98759       84.10148
H         19.45618      -21.27578       85.68691
N         17.27206      -20.09458       87.43799
C         16.85741      -19.15270       88.47168
C         15.50414      -19.55232       89.03251
O         15.00635      -20.61063       88.67290
H         17.59538      -21.02717       87.73794
H         16.75179      -18.13762       88.03591
H         17.62542      -19.09655       89.27500
N         14.77737      -18.74200       89.85608
C         15.19945      -17.42678       90.33126
C         14.46401      -16.34250       89.56669
O         13.62303      -16.65273       88.73257
C         14.90850      -17.32231       91.84175
C         15.68428      -18.36211       92.60486
N         15.05275      -19.41372       93.17645
O         16.89911      -18.26387       92.69053
H         13.82492      -19.05296       90.10968
H         16.28183      -17.26473       90.14987
H         13.81570      -17.47057       91.99507
H         15.16237      -16.31928       92.24865
H         14.03289      -19.53158       93.08558
H         15.58971      -20.13191       93.68404
N         14.77812      -15.03233       89.77340
C         14.15165      -13.93615       89.05352
C         15.12812      -13.17484       88.17721
O         14.69302      -12.21493       87.55655
H         15.50692      -14.79603       90.46373
H         13.70308      -13.24093       89.79612
H         13.33175      -14.29670       88.39624
N         16.44947      -13.51569       88.06518
C         17.37199      -12.76455       87.21819
C         17.01907      -12.91369       85.75157
O         17.09821      -14.00392       85.20165
C         18.84893      -13.16948       87.46464
C         19.80045      -12.55261       86.42433
O         19.24700      -12.72271       88.73557
H         16.81992      -14.30813       88.60872
H         17.30312      -11.69021       87.49998
H         18.97510      -14.27162       87.38709
H         18.90351      -13.37215       89.40015
H         19.60194      -12.96949       85.41217
H         19.68014      -11.44923       86.38256
H         20.85262      -12.79763       86.67481
N         16.67387      -11.80096       85.05355
C         16.47205      -11.76325       83.61651
C         17.81902      -11.88094       82.90056
O         18.71917      -11.09303       83.15420
C         15.72907      -10.44775       83.22294
C         15.61284      -10.30346       81.68169
C         14.32954      -10.43398       83.88149
C         14.86564       -9.05117       81.22740
H         16.57278      -10.91795       85.57546
H         15.79812      -12.59333       83.31855
H         16.31202       -9.58099       83.60595
H         15.09435      -11.18118       81.25062
H         16.63519      -10.24858       81.25037
H         14.39031      -10.55496       84.98177
H         13.81721       -9.46704       83.70996
H         13.69933      -11.25546       83.47586
H         14.89622       -8.98289       80.12136
H         13.79712       -9.10080       81.51981
H         15.33448       -8.14225       81.65706
N         17.96184      -12.80500       81.91429
C         19.08637      -12.95338       81.01355
C         18.69937      -12.49538       79.60045
O         19.60855      -12.34420       78.79522
C         19.48771      -14.45449       80.96635
C         20.21591      -14.93160       82.20536
O         19.72755      -15.87294       83.04216
O         21.32848      -14.49265       82.42842
H         17.17812      -13.41080       81.72108
H         19.93746      -12.31224       81.33433
H         20.17312      -14.63726       80.10878
H         18.57433      -15.06428       80.77784
N         17.39823      -12.27196       79.21023
C         17.01951      -11.87723       77.85744
C         16.03814      -12.91229       77.24955
O         14.96105      -12.52690       76.82230
C         16.39001      -10.46052       77.94059
C         16.49921       -9.74292       76.62613
C         15.39655       -9.57389       75.77584
C         17.75245       -9.23321       76.24568
C         15.56116       -8.93170       74.54268
C         17.90807       -8.57812       75.02558
C         16.81562       -8.43680       74.16800
H         16.62994      -12.39197       79.87376
H         17.92981      -11.83009       77.22308
H         16.93007       -9.83112       78.68344
H         15.34311      -10.53399       78.31245
H         14.42222       -9.95631       76.05304
H         18.60761       -9.33888       76.90379
H         14.71822       -8.82112       73.87407
H         18.87790       -8.18726       74.74597
H         16.94335       -7.94262       73.21443
N         16.32083      -14.25543       77.21236
C         15.39991      -15.32211       76.80412
C         14.00238      -15.24814       77.41256
O         13.03607      -15.47489       76.69804
C         16.08339      -16.58689       77.35087
C         17.54194      -16.25732       77.17729
C         17.58347      -14.81086       77.64401
H         15.34633      -15.36099       75.69191
H         15.91485      -16.66374       78.45097
H         15.74955      -17.53776       76.88344
H         18.24850      -16.92225       77.71861
H         17.76402      -16.29265       76.08747
H         17.61545      -14.76099       78.74546
H         18.45765      -14.30543       77.17963
N         13.83212      -14.96589       78.73901
C         12.52462      -14.97983       79.41501
C         11.53492      -14.05917       78.73031
O         10.33971      -14.30373       78.81566
C         12.52005      -14.62481       80.93691
C         13.55320      -15.36594       81.79068
C         14.87725      -14.71470       81.70894
O         15.91709      -15.30820       82.28356
O         15.01841      -13.64105       81.14919
H         14.68955      -14.76861       79.24788
H         12.15814      -16.02613       79.32543
H         11.52063      -14.89696       81.33160
H         12.63095      -13.52833       81.10560
H         13.61231      -16.42985       81.48206
H         13.29389      -15.31857       82.86936
N         11.96512      -12.95904       78.05560
C         11.07870      -12.09386       77.31535
H         10.27453      -11.70884       77.97426
H         11.65504      -11.23596       76.90657
H         10.63830      -12.65577       76.46389
H         12.96278      -12.72181       78.06450
Ca        17.58071      -16.32807       83.25165
O         16.02996      -18.23035       81.97430
H         15.18067      -18.21575       81.47035
H         16.65652      -18.73617       81.39896
O         19.21806      -16.53865       85.86868
H         20.09323      -16.76310       85.46417
H         19.38349      -16.57156       86.84327
O         14.76547      -16.67133       84.95181
H         14.15887      -16.09591       85.48094
H         14.48332      -17.59331       85.17534

Ca 1.0



