%chk=apoCaM-CA-Ng.loop2.water4.frame1162.chk
%nprocshared=20
%mem=10GB
%nosave
#b3lyp/svp scf=(tight,noincore,xqc) Test 
#IOP(5/87=12) Density=Current Pop=(MK,readradii) iop(6/33=2) iop(6/42=6)

apoCaM-CA-Ng.loop2.water4.frame1162 

   -2  1 
C         95.98986       69.90375       98.41883
C         94.74415       69.40394       99.09681
O         94.70279       68.23168       99.44065
H         96.73944       69.08820       98.32930
H         95.75046       70.27071       97.39960
H         96.43937       70.72221       99.02013
N         93.67477       70.20822       99.36191
C         93.58118       71.62285       99.00755
C         92.33994       71.85598       98.14474
O         91.96019       70.93745       97.43106
C         93.66009       72.49236      100.28443
C         92.53591       72.25886      101.25308
O         91.75729       73.16112      101.51451
O         92.41459       71.07359      101.87939
H         92.87334       69.78408       99.85320
H         94.44943       71.93434       98.39303
H         93.69363       73.56386       99.99876
H         94.61698       72.28548      100.80990
N         91.66356       73.05054       98.13519
C         90.49327       73.33257       97.30383
C         89.28783       72.45325       97.62468
O         88.30527       72.54762       96.90146
C         90.86321       73.23758       95.81302
H         91.99039       73.82749       98.72248
H         90.18048       74.38658       97.47826
H         90.00415       73.55567       95.18379
H         91.71541       73.91435       95.59121
H         91.13720       72.20610       95.51434
N         89.26979       71.59046       98.68474
C         88.17861       70.65480       98.93491
C         87.42792       70.99406      100.20788
O         87.61848       72.08131      100.73688
C         88.72263       69.21260       98.80864
C         89.80032       68.69142       99.73702
O         90.23117       69.29194      100.86800
O         90.31026       67.62190       99.44329
H         90.06490       71.56092       99.33709
H         87.40793       70.72577       98.13662
H         89.15359       69.16296       97.78323
H         87.88609       68.48431       98.82467
N         86.51608       70.12784      100.73350
C         85.71858       70.41864      101.91347
C         86.16164       69.58558      103.08777
O         87.15406       68.87488      102.99106
H         86.38186       69.20512      100.29720
H         84.65191       70.22105      101.67478
H         85.80498       71.48293      102.21862
N         85.47698       69.66171      104.26425
C         85.91678       68.97430      105.47690
C         85.97614       67.47030      105.29154
O         85.46282       66.95007      104.30906
C         85.00090       69.32383      106.66703
C         85.02516       70.80494      106.95604
N         83.90419       71.55461      106.83784
O         86.07296       71.33398      107.29629
H         84.64263       70.26796      104.30127
H         86.95047       69.32236      105.69799
H         85.32944       68.78767      107.58335
H         83.96592       68.99034      106.42959
H         83.01176       71.13227      106.54312
H         83.93080       72.56676      107.03150
N         86.67900       66.71373      106.18141
C         86.89806       65.29314      105.98800
C         85.64970       64.46705      106.20867
O         84.63229       65.01459      106.60993
H         87.15819       67.17714      106.96839
H         87.66324       64.93560      106.71057
H         87.28979       65.14837      104.95761
N         85.62632       63.12255      105.97518
C         86.74676       62.35922      105.42659
C         86.39204       61.83941      104.04757
O         85.26158       61.98983      103.60455
C         87.15852       61.21280      106.38445
C         87.78807       61.76287      107.66538
O         86.05118       60.41611      106.72088
H         84.74327       62.61689      106.15199
H         87.63720       62.99709      105.26984
H         87.94806       60.58146      105.91496
H         85.88973       59.80376      105.95713
H         88.09784       60.92285      108.32339
H         88.69473       62.35644      107.41589
H         87.07430       62.40827      108.21788
N         87.35459       61.24223      103.29202
C         87.12154       60.73706      101.94615
C         86.73776       59.26921      102.08144
O         87.54880       58.53328      102.62591
C         88.41252       60.91142      101.08746
C         88.80949       62.41176      101.00277
C         88.21555       60.31119       99.68198
C         90.18254       62.64502      100.36816
H         88.30055       61.14177      103.69133
H         86.34413       61.35323      101.46291
H         89.23777       60.35802      101.58930
H         88.86984       62.84035      102.02561
H         88.03572       62.98050      100.44143
H         87.39815       60.83698       99.15273
H         89.14083       60.37868       99.07722
H         87.95842       59.23359       99.74346
H         90.41591       63.73076      100.38412
H         90.96442       62.11088      100.94979
H         90.21461       62.30919       99.31338
N         85.54694       58.72657      101.68203
C         84.44426       59.39914      100.99603
C         84.02583       58.61738       99.76028
O         84.54804       57.53369       99.52399
C         83.23647       59.55208      101.95558
C         82.68616       58.24413      102.47191
O         81.54231       57.91409      102.20275
O         83.42988       57.45216      103.26787
H         85.41302       57.72717      101.90002
H         84.72616       60.40891      100.65688
H         82.42496       60.09646      101.42555
H         83.52869       60.17293      102.82699
N         83.05302       59.09954       98.93508
C         82.48371       58.31097       97.84702
C         81.50567       59.15289       97.03667
O         80.60136       59.71284       97.64874
C         81.69319       57.11822       98.44078
C         81.21071       56.18219       97.36313
C         79.89759       56.26518       96.86990
C         82.08294       55.21299       96.84176
C         79.46859       55.39285       95.86470
C         81.64550       54.33331       95.84827
C         80.34033       54.42488       95.35767
H         82.68300       60.04716       99.11477
H         83.30468       57.92575       97.21112
H         80.83216       57.51283       99.02601
H         82.29184       56.52505       99.16265
H         79.21263       57.01184       97.25216
H         83.09654       55.13245       97.21513
H         78.45989       55.46600       95.47947
H         82.31898       53.58074       95.45935
H         80.00493       53.74552       94.58500
N         81.54143       59.25524       95.67227
C         82.47148       58.58301       94.76750
C         83.90860       59.03114       94.92199
O         84.80371       58.19678       94.93626
C         81.96256       58.98080       93.37182
C         80.47728       59.13782       93.61277
C         80.48781       59.91062       94.92235
H         82.36249       57.48217       94.88738
H         82.33766       59.99350       93.09486
H         82.24677       58.27229       92.56455
H         79.91684       59.63177       92.79118
H         80.04113       58.12869       93.79777
H         80.77981       60.97106       94.74821
H         79.48771       59.86041       95.40590
N         84.19366       60.35545       95.03675
C         85.54584       60.89381       95.08128
C         86.09245       60.93988       93.65754
O         85.46921       61.61118       92.84587
C         85.50305       62.32473       95.66333
C         85.12268       62.29764       97.15439
C         84.86504       63.67636       97.68231
O         85.63267       64.18347       98.66520
O         83.93450       64.33312       97.24236
H         83.40157       61.01576       95.08835
H         86.15865       60.29898       95.78035
H         84.76657       62.92552       95.08375
H         86.49768       62.81517       95.57015
H         85.95556       61.82795       97.71619
H         84.20702       61.69339       97.32541
N         87.21814       60.29698       93.22298
C         88.09370       59.44034       93.99818
H         89.11599       59.87303       93.99995
H         87.78561       59.29078       95.04299
H         88.13626       58.44088       93.51657
H         87.48543       60.42509       92.23406
Ca        89.59200       71.00419      102.19448
O         91.14700       72.89981      104.44666
H         91.31913       73.07693      105.40509
H         90.96946       73.79301      104.05780
O         89.68204       70.21413      105.60030
H         89.33589       70.97638      106.12864
H         90.58622       70.04815      105.96833
O         91.17392       68.36298      103.55144
H         91.48256       67.66398      102.92181
H         90.98843       67.87537      104.39279
O         87.77813       72.51020      104.09455
H         87.08670       73.13661      103.76399
H         88.32004       73.04818      104.72434

Ca 1.0



