%chk=apoCaM-CA-Ng.loop2.water4.frame1359.chk
%nprocshared=20
%mem=10GB
%nosave
#b3lyp/svp scf=(tight,noincore,xqc) Test 
#IOP(5/87=12) Density=Current Pop=(MK,readradii) iop(6/33=2) iop(6/42=6)

apoCaM-CA-Ng.loop2.water4.frame1359 

   -2  1 
C         99.08735       58.38014       96.75671
C         98.07924       58.57510       95.64299
O         98.51344       58.52266       94.50168
H         99.86216       59.17175       96.69657
H         98.70098       58.37360       97.78727
H         99.58086       57.39505       96.61474
N         96.73327       58.76617       95.81726
C         96.03879       58.87368       97.10018
C         95.19116       60.13441       97.24249
O         94.77951       60.39433       98.36556
C         95.20107       57.60367       97.37003
C         94.10358       57.33283       96.37556
O         93.89798       58.08592       95.44177
O         93.33482       56.23775       96.51919
H         96.16779       58.80153       94.95693
H         96.76509       58.94282       97.92145
H         94.73961       57.67775       98.37825
H         95.88613       56.72926       97.36921
N         94.85569       60.94896       96.19299
C         94.08461       62.17570       96.38069
C         92.66337       62.08526       95.85289
O         91.92102       63.02559       96.10551
C         94.81782       63.34878       95.71960
H         95.13806       60.70505       95.23383
H         93.98679       62.40170       97.46451
H         94.27109       64.30149       95.88889
H         95.83979       63.45112       96.14032
H         94.89859       63.18075       94.62281
N         92.20030       61.03432       95.10809
C         90.83545       61.00779       94.58729
C         90.13483       59.68619       94.79077
O         90.72738       58.73762       95.28156
C         90.83979       61.47454       93.11641
C         91.64065       60.74712       92.04957
O         91.77642       61.32750       90.98488
O         92.19398       59.51590       92.14586
H         92.84637       60.28838       94.82061
H         90.21195       61.75126       95.13208
H         91.25943       62.50374       93.15466
H         89.79813       61.57484       92.74395
N         88.82524       59.56972       94.43538
C         88.12439       58.30235       94.38176
C         88.57277       57.52120       93.16582
O         89.45670       57.96808       92.44664
H         88.30981       60.40741       94.12645
H         87.04068       58.50481       94.24053
H         88.24912       57.73179       95.32840
N         87.96159       56.35115       92.84161
C         88.31083       55.58717       91.64265
C         88.02724       56.38234       90.36742
O         87.53064       57.49914       90.43806
C         87.54328       54.24908       91.62950
C         87.89659       53.41599       92.83719
N         86.95181       53.07425       93.74297
O         89.05145       53.05011       93.00040
H         87.22399       55.99934       93.47194
H         89.40000       55.36131       91.67065
H         87.80057       53.65395       90.72881
H         86.45164       54.45838       91.60088
H         85.97391       53.37675       93.62690
H         87.20111       52.51074       94.56911
N         88.33703       55.85603       89.14841
C         88.16024       56.57563       87.89588
C         89.15699       57.70869       87.75673
O         89.92909       57.93980       88.67676
H         88.72390       54.90261       89.09491
H         87.11268       56.93418       87.80230
H         88.36860       55.87060       87.06202
N         89.27969       58.43601       86.61110
C         88.45275       58.28624       85.41685
C         89.20771       57.48321       84.36508
O         88.65934       56.50314       83.88350
C         87.98426       59.67468       84.91106
C         87.06797       60.35650       85.93467
O         89.07948       60.51792       84.65482
H         90.05072       59.12173       86.57238
H         87.52837       57.70970       85.63713
H         87.37372       59.54324       83.98598
H         89.33387       60.39167       83.70430
H         87.59938       60.52805       86.89497
H         86.72356       61.33789       85.54379
H         86.17262       59.72735       86.12902
N         90.49558       57.78161       84.02762
C         91.31986       56.97176       83.11861
C         91.37467       55.52580       83.62846
O         91.69133       55.36404       84.79957
C         92.77717       57.54705       83.05983
C         92.86180       59.01900       82.55932
C         93.70182       56.65286       82.21344
C         92.36696       59.25442       81.12947
H         90.92885       58.58438       84.50236
H         90.90664       57.01046       82.09712
H         93.18894       57.54111       84.09437
H         93.92358       59.34610       82.61326
H         92.29378       59.69272       83.23089
H         94.73354       57.06275       82.19810
H         93.76666       55.62699       82.63134
H         93.32088       56.57640       81.17879
H         91.29206       59.00167       81.03257
H         92.49110       60.32863       80.87649
H         92.95645       58.66784       80.39623
N         91.16422       54.40710       82.85725
C         90.85893       54.37090       81.41898
C         91.14519       52.98204       80.79867
O         91.56091       52.06793       81.49604
C         89.38815       54.80369       81.15392
C         88.34349       53.91060       81.77485
O         88.68274       52.83595       82.51295
O         87.16244       54.16813       81.60565
H         91.30496       53.50753       83.34093
H         91.54171       55.06741       80.89130
H         89.19981       54.84090       80.06194
H         89.21148       55.82865       81.52111
N         90.91084       52.76568       79.46915
C         91.05477       51.47632       78.78628
C         91.75685       51.68002       77.43742
O         91.31564       52.56680       76.71798
C         89.63652       50.94227       78.49494
C         89.67091       49.61473       77.77334
C         89.38178       49.55910       76.39964
C         90.00185       48.42967       78.45433
C         89.43150       48.34268       75.71549
C         90.03429       47.20992       77.76768
C         89.75330       47.16796       76.39885
H         90.52688       53.54348       78.91494
H         91.55497       50.72525       79.42707
H         89.10710       51.69633       77.87179
H         89.04721       50.83291       79.43212
H         89.13730       50.46175       75.85408
H         90.22468       48.44805       79.51404
H         89.22107       48.31285       74.65441
H         90.27945       46.29652       78.29441
H         89.78529       46.22620       75.86629
N         92.76443       50.88310       76.94653
C         93.38781       49.72937       77.58364
C         94.01942       50.05942       78.90990
O         93.75263       49.38036       79.88972
C         94.48121       49.30807       76.58376
C         93.84895       49.67339       75.26520
C         93.25527       51.03920       75.58852
H         92.63414       48.91844       77.68102
H         95.37676       49.96428       76.67768
H         94.81650       48.25366       76.68186
H         94.52942       49.66381       74.38701
H         93.01452       48.95735       75.08282
H         94.01836       51.84840       75.57634
H         92.45015       51.25096       74.85079
N         94.84970       51.13156       79.00730
C         95.47470       51.54681       80.25176
C         96.59285       50.56957       80.59381
O         97.51786       50.45690       79.80118
C         96.04912       52.97417       80.09924
C         94.95333       54.00416       79.74469
C         95.50997       55.38078       79.50139
O         94.76028       56.27846       79.15343
O         96.82671       55.63581       79.63080
H         95.00586       51.69640       78.15924
H         94.69788       51.59910       81.04341
H         96.81647       52.97239       79.29306
H         96.53568       53.27894       81.05203
H         94.20097       54.04579       80.56182
H         94.42944       53.70569       78.81379
N         96.61321       49.81206       81.72668
C         95.57774       49.83124       82.73470
H         94.61021       49.51302       82.29691
H         95.83601       49.12012       83.54828
H         95.48423       50.84763       83.16949
H         97.41311       49.17706       81.87763
Ca        92.16641       57.63786       93.40125
O         91.91104       56.19695       90.69562
H         91.96596       57.12882       90.36583
H         91.38816       55.71800       90.00495
O         90.52836       55.50398       95.19569
H         90.56546       55.01741       96.05718
H         90.73864       54.81808       94.51363
O         94.86725       57.24985       91.94693
H         94.48215       57.68265       91.14385
H         95.67344       57.78541       92.15519
O         93.30885       54.44154       93.20369
H         93.28253       54.11652       92.26874
H         93.12732       53.63654       93.75102

Ca 1.0



