%chk=apoCaM-CA-Ng.loop2.water4.frame1272.chk
%nprocshared=20
%mem=10GB
%nosave
#b3lyp/svp scf=(tight,noincore,xqc) Test 
#IOP(5/87=12) Density=Current Pop=(MK,readradii) iop(6/33=2) iop(6/42=6)

apoCaM-CA-Ng.loop2.water4.frame1272 

   -2  1 
C         67.78929       60.21016        2.47278
C         66.45902       59.83315        1.87064
O         66.46552       58.94787        1.02775
H         68.48387       60.49622        1.65527
H         67.75796       61.06957        3.16314
H         68.21174       59.33264        3.00583
N         65.26900       60.43466        2.17777
C         65.07556       61.48947        3.17621
C         63.72138       62.28288        3.02681
O         62.97821       61.85120        1.92304
C         65.29397       60.95663        4.62867
C         64.53711       59.73845        5.15875
O         64.88440       59.29845        6.24341
O         63.53424       59.09367        4.51886
H         64.46727       60.12295        1.61962
H         65.86171       62.25115        2.97984
H         65.15398       61.79641        5.34266
H         66.35330       60.65707        4.71403
N         63.98653       63.73213        2.93186
C         62.79791       64.60962        2.87492
C         61.97295       64.37118        1.62578
O         62.53809       64.35188        0.53986
C         63.26232       66.07225        2.85885
H         64.54183       64.00272        3.77781
H         62.17472       64.46956        3.78641
H         63.85046       66.30195        3.77231
H         63.89749       66.27533        1.96898
H         62.38376       66.75299        2.83396
N         60.61717       64.23104        1.70412
C         59.77770       63.99052        0.53328
C         59.02525       65.24938        0.14979
O         59.09356       66.23926        0.86727
C         58.80436       62.82992        0.81704
C         59.53191       61.57595        1.20931
O         59.31917       61.02559        2.42048
O         60.31636       61.05104        0.43580
H         60.15613       64.34288        2.62076
H         60.41206       63.73030       -0.34248
H         58.18337       62.61765       -0.07908
H         58.12331       63.12129        1.64723
N         58.33195       65.30249       -1.02491
C         57.67229       66.51456       -1.48177
C         56.48836       66.90311       -0.62661
O         56.08159       68.05412       -0.69473
H         58.32554       64.47966       -1.64654
H         57.31090       66.39074       -2.52531
H         58.42097       67.33696       -1.48570
N         55.84093       65.98477        0.14717
C         54.68552       66.30334        0.98123
C         54.91892       65.95543        2.45099
O         54.03127       66.20983        3.25344
C         53.42179       65.63875        0.38909
C         53.42357       64.12873        0.30908
N         52.38873       63.49700       -0.29211
O         54.34424       63.47065        0.76990
H         56.15733       65.00567        0.11376
H         54.48886       67.39794        0.95475
H         53.30475       66.02887       -0.64641
H         52.52936       65.95775        0.96992
H         51.60743       64.03590       -0.69508
H         52.37234       62.46941       -0.36836
N         56.09217       65.40403        2.88752
C         56.39526       65.12031        4.28331
C         56.51715       66.37892        5.11509
O         56.22240       67.45518        4.61374
H         56.83178       65.17000        2.21374
H         57.37895       64.60464        4.31381
H         55.62243       64.45636        4.71482
N         56.99225       66.36914        6.39432
C         57.49045       65.19451        7.11394
C         56.38058       64.20280        7.42449
O         55.29464       64.61603        7.80504
C         58.19629       65.64712        8.41878
C         58.79127       64.47057        9.20574
O         59.23790       66.52784        8.07665
H         57.06512       67.28668        6.86358
H         58.27802       64.69974        6.50260
H         57.44937       66.17180        9.06060
H         59.39710       67.11389        8.86160
H         59.31443       64.84985       10.10869
H         57.99612       63.77443        9.54407
H         59.52165       63.91408        8.57975
N         56.63699       62.86157        7.36707
C         55.66640       61.81803        7.69018
C         56.15410       61.05086        8.92199
O         57.28438       60.58432        8.88645
C         55.52658       60.82522        6.49316
C         55.18810       61.57709        5.18413
C         54.46477       59.75257        6.81381
C         55.10253       60.67662        3.95067
H         57.58658       62.55746        7.10066
H         54.67222       62.27029        7.86721
H         56.50393       60.31311        6.34183
H         56.00723       62.29343        4.98100
H         54.23445       62.13750        5.29659
H         54.40874       58.98851        6.01426
H         54.72359       59.20543        7.74312
H         53.46425       60.21775        6.94123
H         54.93234       61.30470        3.05091
H         56.05189       60.11526        3.81711
H         54.25620       59.96498        4.02501
N         55.38580       60.79482       10.02602
C         53.99614       61.20157       10.20802
C         53.28632       60.26588       11.17972
O         53.74683       60.11547       12.30407
C         53.89724       62.67063       10.68063
C         54.52208       62.91767       12.02888
O         55.71616       62.73446       12.20237
O         53.76088       63.35292       13.05188
H         55.80761       60.19491       10.75359
H         53.45870       61.11479        9.24306
H         52.82053       62.94508       10.73366
H         54.37962       63.34328        9.94438
N         52.15097       59.60384       10.80098
C         51.38042       58.72228       11.68084
C         50.21282       58.10957       10.90502
O         49.45584       58.88032       10.32278
C         50.84959       59.49155       12.92527
C         50.18961       58.56537       13.92625
C         48.89130       58.06824       13.71095
C         50.88438       58.17359       15.08641
C         48.30893       57.18898       14.62928
C         50.30013       57.28878       15.99753
C         49.01438       56.79513       15.76806
H         51.81619       59.74104        9.83380
H         52.06081       57.93361       12.05719
H         50.16312       60.32107       12.64975
H         51.70633       59.96451       13.43995
H         48.32786       58.35750       12.83416
H         51.88695       58.53567       15.27784
H         47.31138       56.80758       14.45436
H         50.84717       56.98144       16.87955
H         48.56471       56.10757       16.47267
N         49.93949       56.76369       10.88453
C         50.62530       55.76301       11.69633
C         52.04698       55.46637       11.27314
O         52.76339       54.84544       12.04957
C         49.73046       54.52060       11.59607
C         48.36187       55.13809       11.33881
C         48.72727       56.20992       10.32302
H         50.60763       56.13526       12.74120
H         49.99178       53.94908       10.67626
H         49.79201       53.83665       12.46978
H         47.58489       54.42393       10.99451
H         48.00723       55.63692       12.26740
H         48.97727       55.72320        9.35304
H         47.91118       56.94865       10.16655
N         52.53033       55.86282       10.06112
C         53.93081       55.71086        9.68765
C         54.07431       55.77903        8.16626
O         53.60760       56.74997        7.58666
C         54.72377       56.86042       10.35413
C         56.25044       56.75910       10.21613
C         56.84370       55.70524       11.11728
O         57.70562       56.06898       12.08600
O         56.55665       54.52725       10.98913
H         51.88842       56.32166        9.39577
H         54.29041       54.73297       10.05948
H         54.48447       56.92943       11.43794
H         54.38537       57.81144        9.88726
H         56.67711       57.73509       10.53239
H         56.54160       56.59168        9.15746
N         54.69139       54.81790        7.41951
C         55.34509       53.64968        7.96654
H         56.18191       53.96306        8.61955
H         54.62401       53.02196        8.52916
H         55.77709       53.04037        7.14421
H         54.72323       54.93778        6.39503
Ca        62.33051       59.94390        2.85747
O         59.41749       58.04166        3.79723
H         59.26705       57.35125        4.49064
H         58.54893       58.11431        3.32705
O         62.91631       58.56060        0.01457
H         63.77346       58.18728        0.34029
H         63.14325       59.46707       -0.31313
O         61.01876       60.44864        5.64940
H         60.26186       61.08000        5.74065
H         61.82008       60.98772        5.86850
O         60.01442       58.04919        0.80655
H         59.07171       58.29379        0.62847
H         60.33314       57.65557       -0.04385

Ca 1.0



