%chk=apoCaM-CA-Ng.loop1.water3.frame447.chk
%nprocshared=20
%mem=10GB
%nosave
#b3lyp/svp scf=(tight,noincore,xqc) Test 
#IOP(5/87=12) Density=Current Pop=(MK,readradii) iop(6/33=2) iop(6/42=6)

apoCaM-CA-Ng.loop1.water3.frame447 

   0  1 
C         94.13579       72.03068       93.97711
C         95.02225       72.70338       92.96607
O         95.58447       72.02600       92.11876
H         93.29751       71.51787       93.46367
H         94.72747       71.29052       94.55465
H         93.70929       72.76343       94.69686
N         95.18363       74.05261       92.99941
C         96.02464       74.81551       92.07774
C         97.53166       74.63795       92.31532
O         98.27705       75.45792       91.80548
C         95.63033       76.32372       92.12888
C         95.86974       77.03089       93.44611
O         96.60347       78.00315       93.49056
O         95.22565       76.65531       94.56616
H         94.62027       74.56510       93.68963
H         95.79339       74.51085       91.03342
H         94.55208       76.41877       91.87764
H         96.19080       76.85890       91.32904
N         98.06839       73.64909       93.09303
C         99.47510       73.62939       93.49575
C        100.17517       72.32904       93.09918
O         99.58886       71.28203       93.33839
C         99.52278       73.80312       95.02812
C         98.74705       75.06221       95.45071
C         98.74532       75.27019       96.96524
C         97.68522       76.30171       97.39497
N         97.90240       77.62680       96.81302
H         97.46327       72.93670       93.51768
H        100.00155       74.49200       93.06979
H        100.57349       73.87165       95.37552
H         99.05595       72.91855       95.51494
H         97.69014       74.93911       95.13446
H         99.17298       75.95576       94.94319
H         99.76153       75.56345       97.30801
H         98.47134       74.31259       97.45887
H         97.69649       76.38128       98.50328
H         96.67928       75.93054       97.09305
H         97.84678       77.59031       95.77152
H         97.14675       78.26685       97.14894
H         98.83038       78.00466       97.10858
N        101.44864       72.25125       92.58186
C        102.36409       73.36092       92.30598
C        102.54729       74.24373       93.53824
O        102.14598       75.39594       93.50802
C        101.95716       74.13808       91.02647
C        102.11217       73.32330       89.76482
O        101.84873       73.82937       88.68611
O        102.58501       72.06213       89.80003
H        101.83182       71.30568       92.42329
H        103.37060       72.95464       92.06360
H        102.63672       75.01082       90.90958
H        100.91822       74.51064       91.09017
N        103.16866       73.81845       94.67325
C        103.81836       72.52276       94.79912
C        104.59694       72.38434       96.10268
O        104.45180       73.21646       96.98509
H        103.23733       74.49883       95.44459
H        104.56126       72.45793       93.97888
H        103.08385       71.69575       94.69944
N        105.52084       71.39583       96.29059
C        105.83204       70.36602       95.30565
C        107.08396       70.72421       94.52976
O        107.79070       71.65001       94.91102
C        105.95805       68.99157       95.99507
C        107.08129       68.94898       97.00454
O        108.23914       69.11327       96.65255
O        106.81161       68.72556       98.30462
H        106.08952       71.43599       97.15156
H        105.01121       70.29733       94.56262
H        106.13169       68.19819       95.23776
H        104.99918       68.76971       96.51158
N        107.39115       70.05051       93.38331
C        108.56831       70.33643       92.57487
C        108.62020       71.74250       91.99241
O        109.63586       72.06565       91.39550
H        106.76955       69.28740       93.07311
H        108.61969       69.61331       91.73211
H        109.46610       70.18575       93.21161
N        107.60660       72.64164       92.15770
C        107.66666       74.04105       91.74148
C        106.61683       74.82393       92.52164
O        105.45091       74.46391       92.49035
C        107.54009       74.23122       90.20140
C        106.27468       73.61442       89.59906
O        108.64884       73.68037       89.54070
H        106.76665       72.34606       92.66924
H        108.65138       74.46136       92.04357
H        107.51137       75.32515       89.98397
H        109.41753       74.28712       89.70944
H        105.35565       74.04691       90.03944
H        106.25262       73.81751       88.50616
H        106.27076       72.51520       89.75184
N        106.98115       75.90460       93.26933
C        106.07203       76.65375       94.13379
C        105.64640       77.89825       93.36809
O        105.99783       79.01213       93.72775
C        106.77207       76.89775       95.51597
C        107.14160       75.53234       96.16669
C        105.87828       77.71844       96.47002
C        107.95629       75.64208       97.45974
H        107.95766       76.23402       93.21414
H        105.13851       76.08018       94.32906
H        107.71098       77.46873       95.33665
H        107.75876       74.93528       95.46221
H        106.21449       74.96104       96.37454
H        106.40246       77.93246       97.42243
H        105.62306       78.70929       96.05181
H        104.93563       77.17431       96.68702
H        108.90933       76.17966       97.27043
H        107.39402       76.15659       98.26378
H        108.19521       74.62186       97.82958
N        104.90880       77.73500       92.23070
C        104.54352       78.81415       91.31710
C        103.04747       78.85079       90.97041
O        102.66388       79.71264       90.19212
C        105.39141       78.65580       90.02787
C        105.10606       77.34584       89.27797
O        106.75809       78.68758       90.35159
H        104.66041       76.77526       91.95854
H        104.80329       79.79832       91.76551
H        105.16268       79.49093       89.32731
H        106.97070       79.61932       90.61991
H        105.73065       77.29281       88.36310
H        105.35106       76.46331       89.89932
H        104.04139       77.28228       88.97848
N        102.15692       77.94670       91.47735
C        100.72791       77.85468       91.14867
C        100.49741       77.47241       89.68075
O        101.43230       77.51234       88.89592
C         99.96553       79.15568       91.54612
C        100.15456       79.51560       93.02656
O         98.59462       79.05425       91.26845
H        102.50300       77.25851       92.14911
H        100.32178       77.01569       91.75469
H        100.35106       80.00280       90.94383
H         98.25618       78.27151       91.76997
H        101.22655       79.68560       93.25796
H         99.59901       80.45016       93.25699
H         99.76752       78.70367       93.67918
N         99.26507       77.05054       89.25122
C         98.95066       76.73733       87.85747
C         98.61004       75.26128       87.62497
O         98.36429       74.90592       86.47902
C         97.73774       77.57675       87.40961
C         97.91162       79.09376       87.59707
C         96.73640       79.88165       86.98715
C         95.37690       79.60196       87.65674
N         94.30221       80.30876       86.96045
H         98.49916       76.96189       89.92871
H         99.81877       76.97846       87.20694
H         96.85716       77.23733       87.99465
H         97.54950       77.37416       86.33227
H         98.83947       79.41105       87.07426
H         98.01618       79.34530       88.67424
H         96.67358       79.63121       85.90621
H         96.95330       80.96865       87.07613
H         95.41337       79.92584       88.72090
H         95.13754       78.51951       87.63074
H         94.23655       79.96479       85.97406
H         93.39422       80.11295       87.44084
H         94.47782       81.33911       86.96364
N         98.56572       74.34449       88.63357
C         98.23008       72.93396       88.42473
C         96.80856       72.77825       87.89700
O         95.94483       73.56148       88.26890
C         98.35676       72.16922       89.76469
C         98.20543       70.64134       89.65510
C         99.36552       70.02005       88.93497
O         99.19676       69.36890       87.91630
O        100.59960       70.15232       89.45539
H         98.79634       74.64953       89.58549
H         98.95959       72.50911       87.70040
H         97.57733       72.55106       90.45435
H         99.34536       72.38422       90.22387
H         97.24147       70.37204       89.17650
H         98.19636       70.21303       90.67946
N         96.48645       71.73012       87.08545
C         95.13982       71.45701       86.61963
H         94.40364       72.20782       86.97621
H         95.12460       71.44474       85.51039
H         94.82011       70.45918       86.99063
H         97.22433       71.06805       86.80361
Ca       102.42299       69.16181       88.58142
O        102.41863       68.51482       85.70224
H        101.62892       68.11409       86.14586
H        102.09766       69.39058       85.37015
O        104.99968       70.79082       87.86753
H        104.84755       71.63334       87.37016
H        105.94221       70.55509       87.67668
O        104.82393       67.51156       88.07355
H        105.67785       67.32309       88.53725
H        105.01483       67.34469       87.11655

Ca 1.0



