%chk=apoCaM-CA-Ng.loop3.water4.frame28.chk
%nprocshared=20
%mem=10GB
%nosave
#b3lyp/svp scf=(tight,noincore,xqc) Test 
#IOP(5/87=12) Density=Current Pop=(MK,readradii) iop(6/33=2) iop(6/42=6)

apoCaM-CA-Ng.loop3.water4.frame28 

   0  1 
C         70.77250       81.48922       55.21842
C         70.58014       82.44595       56.35375
O         70.57976       83.64928       56.14158
H         71.68353       80.88130       55.40166
H         69.89290       80.81645       55.14012
H         70.90563       82.03007       54.26498
N         70.44006       81.95780       57.61405
C         70.31128       82.77170       58.81546
C         71.53225       83.66556       58.99327
O         71.39042       84.83433       59.32437
C         68.98462       83.56570       58.82926
C         67.79656       82.66619       58.63110
O         67.05286       82.83527       57.67763
O         67.54526       81.67093       59.50250
H         70.46503       80.93371       57.74271
H         70.29869       82.06952       59.67933
H         68.99681       84.33511       58.02714
H         68.87372       84.08937       59.80345
N         72.77697       83.16194       58.75068
C         74.01217       83.92372       58.93120
C         74.68022       84.29299       57.61239
O         75.64356       85.04893       57.64986
C         74.99160       83.12697       59.82800
C         75.44026       81.79662       59.17990
C         76.42422       81.01785       60.05290
C         76.83329       79.71524       59.34566
N         77.77051       78.94323       60.15778
H         72.83685       82.19915       58.39679
H         73.77913       84.88787       59.43324
H         74.50095       82.91854       60.80352
H         75.89073       83.75215       60.02217
H         75.92585       82.00813       58.20244
H         74.56784       81.13630       59.00613
H         75.94305       80.77642       61.02595
H         77.32715       81.63847       60.23916
H         77.30950       79.95771       58.36898
H         75.92887       79.09668       59.14645
H         77.32090       78.67163       61.06201
H         78.03638       78.07595       59.63730
H         78.63246       79.50553       60.34273
N         74.26011       83.79613       56.41522
C         74.90062       84.14707       55.15128
C         74.60244       85.60490       54.83612
O         73.47129       86.01745       55.04000
C         74.37763       83.22273       54.02568
C         75.30504       83.16106       52.83008
O         75.79042       82.08974       52.50413
O         75.60034       84.25389       52.10490
H         73.48125       83.12204       56.39561
H         75.99255       83.94831       55.23901
H         73.34531       83.51222       53.72706
H         74.32723       82.18458       54.42399
N         75.55047       86.45095       54.34824
C         75.26448       87.84327       54.01048
C         74.31711       88.03712       52.82567
O         74.01471       89.18512       52.53028
H         76.51238       86.10468       54.22838
H         76.21516       88.35843       53.75863
H         74.83727       88.34712       54.90595
N         73.79921       86.99365       52.11083
C         72.84091       87.13640       51.01631
C         71.47903       86.55783       51.40304
O         70.56230       86.64054       50.59799
C         73.36734       86.42152       49.75467
C         74.62651       87.03033       49.19279
N         74.62427       88.28451       48.68688
O         75.65190       86.37103       49.15504
H         74.05560       86.03588       52.36573
H         72.66519       88.20833       50.77924
H         72.60239       86.47388       48.95451
H         73.54248       85.35019       50.00301
H         73.76249       88.84793       48.67600
H         75.48378       88.68287       48.27966
N         71.25577       85.99759       52.62914
C         69.96418       85.52514       53.07956
C         69.50840       84.34371       52.27707
O         70.15455       83.31264       52.33384
H         72.01167       85.93359       53.30532
H         69.24126       86.36567       53.02728
H         70.03144       85.20964       54.14215
N         68.37246       84.43370       51.53442
C         67.79253       83.40065       50.68466
C         68.55183       83.20714       49.37553
O         67.90278       83.31407       48.35028
C         67.49281       82.07721       51.42695
C         66.41164       81.30437       50.69160
C         65.12361       81.86656       50.57434
C         66.65476       80.04473       50.11981
C         64.11147       81.20014       49.88569
C         65.63410       79.37607       49.42752
C         64.36070       79.95611       49.30583
O         63.36990       79.33142       48.63775
H         67.84687       85.32004       51.58651
H         66.80733       83.82308       50.39077
H         67.09360       82.29327       52.44183
H         68.42842       81.48847       51.54540
H         64.89792       82.82933       51.01592
H         67.62996       79.58363       50.19930
H         63.13228       81.65617       49.80184
H         65.83283       78.40956       48.98272
H         63.49371       78.47087       48.21406
N         69.89162       82.91546       49.32603
C         70.73506       82.80012       48.13117
C         70.97795       84.16554       47.47175
O         72.12149       84.59231       47.44226
C         70.26082       81.67406       47.16973
C         70.11682       80.34764       47.96840
C         71.27388       81.51242       46.01759
C         69.59367       79.17001       47.14775
H         70.39079       82.74942       50.19937
H         71.74066       82.47285       48.49146
H         69.27569       81.94472       46.73569
H         69.39339       80.50006       48.79549
H         71.09428       80.06480       48.41878
H         70.94654       80.74116       45.29356
H         71.36877       82.45711       45.44756
H         72.27555       81.23213       46.41226
H         70.30637       78.88394       46.34879
H         69.46928       78.28982       47.81411
H         68.60833       79.42015       46.70216
N         69.97614       84.91931       46.94296
C         70.16765       86.24958       46.37790
C         70.97164       86.18349       45.09731
O         71.87536       86.98704       44.91870
C         68.79966       86.89560       46.10108
O         68.97552       88.20499       45.63231
H         69.02412       84.55841       46.94185
H         70.67056       86.90714       47.12425
H         68.23430       86.91964       47.06297
H         68.23055       86.30043       45.35378
H         68.08959       88.64690       45.70251
N         70.69400       85.22355       44.16718
C         71.35360       85.09210       42.87276
C         72.87576       85.09312       42.98070
O         73.53327       85.68754       42.13554
C         70.84312       86.19303       41.93258
H         69.97115       84.52222       44.39054
H         71.03942       84.11826       42.43614
H         69.73528       86.14298       41.86274
H         71.12688       87.19725       42.31405
H         71.26118       86.06140       40.91254
N         73.50026       84.52297       44.04826
C         74.93427       84.62687       44.28003
C         75.52569       83.28218       44.63337
O         75.01133       82.63749       45.53643
C         75.17553       85.59953       45.43961
H         72.92601       84.08901       44.78598
H         75.46474       85.05730       43.40221
H         76.26528       85.71299       45.62439
H         74.76847       86.60044       45.18101
H         74.68728       85.24806       46.37233
N         76.66746       82.83802       44.02396
C         77.42572       81.66632       44.46859
C         76.67403       80.35366       44.26565
O         77.14959       79.33335       44.74652
C         77.85827       81.83653       45.95061
C         78.60246       83.16129       46.22445
C         78.73821       83.35997       47.70836
O         78.05156       84.36292       48.29250
O         79.36597       82.56653       48.38942
H         77.08188       83.40878       43.27158
H         78.36154       81.59663       43.87168
H         78.50799       80.98881       46.26088
H         76.95849       81.79488       46.59339
H         77.99831       84.00843       45.83977
H         79.58902       83.18228       45.71390
N         75.52570       80.27876       43.53290
C         74.81935       79.02895       43.34507
H         73.94945       79.18123       42.67134
H         75.49198       78.27184       42.88745
H         74.45077       78.65366       44.32331
H         75.14502       81.11495       43.06859
Ca        76.86352       84.10756       50.21828
O         77.73575       86.45942       51.74640
H         77.17418       87.27429       51.74598
H         78.23179       86.49373       52.60228
O         79.09861       83.43154       51.97433
H         79.42739       83.06965       52.83470
H         79.83784       83.99951       51.64051
O         74.84079       82.82825       48.45569
H         74.24034       83.58620       48.25644
H         75.70110       83.10146       48.05304
O         77.26040       81.01263       49.69023
H         78.15922       80.64433       49.50116
H         77.03426       80.65135       50.58263

Ca 1.0



