%chk=apoCaM-CA-Ng.loop2.water4.frame311.chk
%nprocshared=20
%mem=10GB
%nosave
#b3lyp/svp scf=(tight,noincore,xqc) Test 
#IOP(5/87=12) Density=Current Pop=(MK,readradii) iop(6/33=2) iop(6/42=6)

apoCaM-CA-Ng.loop2.water4.frame311 

   -2  1 
C         56.65267       86.62618       34.07092
C         56.28700       87.87282       34.82293
O         55.20869       88.39776       34.59478
H         57.65592       86.25244       34.36467
H         55.90210       85.83329       34.26808
H         56.66880       86.84797       32.98194
N         57.13350       88.40229       35.74985
C         56.86930       89.66110       36.44359
C         56.99179       90.80775       35.45717
O         58.04334       90.93876       34.84317
C         57.87760       89.86755       37.59635
C         57.76947       88.82422       38.68256
O         58.58718       88.89694       39.74928
O         56.94839       87.92148       38.61993
H         58.00600       87.89327       35.96174
H         55.85238       89.64010       36.89562
H         57.69094       90.85767       38.06610
H         58.91515       89.85929       37.19593
N         55.96168       91.68122       35.24459
C         56.06041       92.75800       34.25890
C         56.19086       92.21218       32.84546
O         56.61080       92.94992       31.96529
C         54.84660       93.68693       34.32738
H         55.09752       91.57876       35.79840
H         56.96865       93.35427       34.50223
H         53.91667       93.12420       34.09506
H         54.76026       94.12332       35.34453
H         54.95504       94.51770       33.59703
N         55.83760       90.92449       32.55935
C         56.02381       90.26233       31.27841
C         55.14358       90.83356       30.16371
O         55.26965       90.37950       29.03557
C         57.53799       90.23282       30.94241
C         57.85269       89.21077       29.89399
O         58.37055       89.52087       28.83400
O         57.54265       87.93180       30.15420
H         55.43589       90.34853       33.30375
H         55.69803       89.20487       31.41571
H         58.09502       89.91286       31.85178
H         57.89993       91.23797       30.64574
N         54.19307       91.78959       30.40174
C         53.33642       92.34912       29.36467
C         52.33461       91.37631       28.75608
O         51.61762       91.79901       27.86057
H         54.06857       92.16971       31.34912
H         53.98040       92.76925       28.56124
H         52.74994       93.18723       29.79970
N         52.22799       90.07510       29.15815
C         51.33836       89.09822       28.53304
C         50.48304       88.44232       29.60761
O         51.03836       88.01262       30.60983
C         52.22403       88.08507       27.78095
C         51.45723       87.18009       26.84499
N         50.59554       86.25003       27.30902
O         51.63412       87.28331       25.63979
H         52.84162       89.72588       29.90615
H         50.69126       89.58004       27.76582
H         52.83931       87.48944       28.48783
H         52.91650       88.68444       27.14891
H         50.45835       86.11901       28.31803
H         50.08068       85.64350       26.65328
N         49.13223       88.29722       29.46069
C         48.28264       87.72807       30.50404
C         47.80784       86.33086       30.17443
O         48.14824       85.79842       29.12812
H         48.68800       88.58294       28.57433
H         47.41657       88.40451       30.67035
H         48.83179       87.65166       31.46538
N         47.01434       85.65944       31.06084
C         46.57059       84.28490       30.82499
C         47.73213       83.28828       30.86243
O         47.57429       82.20192       30.32284
C         45.43133       83.85013       31.78715
C         45.84441       83.77537       33.26585
O         44.30777       84.68188       31.62716
H         46.70892       86.15834       31.90867
H         46.13444       84.26192       29.80031
H         45.11491       82.82423       31.49597
H         44.49129       85.54588       32.07931
H         46.65783       83.04268       33.39523
H         46.18326       84.75907       33.64992
H         44.98323       83.43516       33.87849
N         48.91772       83.58244       31.47888
C         50.09613       82.71630       31.44371
C         51.20498       83.49404       30.77788
O         51.56546       84.55450       31.27434
C         50.54396       82.26890       32.87055
C         49.47123       81.43576       33.61396
C         51.88036       81.49252       32.82918
C         49.08475       80.11234       32.94240
H         49.01203       84.48251       31.97347
H         49.90055       81.80319       30.84358
H         50.72280       83.18219       33.48177
H         48.56198       82.04758       33.73452
H         49.84597       81.20630       34.63566
H         52.18493       81.19335       33.85458
H         51.80538       80.58651       32.19351
H         52.69727       82.12399       32.42174
H         49.95884       79.43658       32.84792
H         48.32528       79.59561       33.56542
H         48.64123       80.28145       31.94162
N         51.78986       83.02916       29.63969
C         52.85388       83.75912       28.96620
C         53.06942       83.17319       27.58202
O         54.17644       82.79828       27.23002
C         54.13530       83.71491       29.83372
C         55.14500       84.70812       29.36890
O         54.86294       85.89539       29.39774
O         56.38256       84.33748       28.99589
H         51.43565       82.15225       29.22541
H         52.50626       84.80648       28.83039
H         54.55221       82.68327       29.84947
H         53.91023       83.99085       30.88387
N         51.99390       83.01689       26.76209
C         52.03593       82.33234       25.47428
C         52.55895       80.90785       25.67970
O         52.07839       80.24995       26.59357
C         50.60341       82.28105       24.89802
C         50.56053       81.69674       23.51141
C         50.85338       82.50025       22.39568
C         50.22665       80.34636       23.31983
C         50.80644       81.95848       21.10740
C         50.19362       79.80601       22.03143
C         50.47962       80.61175       20.92586
H         51.08028       83.34876       27.10946
H         52.67610       82.90978       24.77506
H         50.15872       83.30055       24.85975
H         49.96189       81.68570       25.58510
H         51.10804       83.54538       22.52345
H         50.00584       79.71074       24.16818
H         51.02375       82.58220       20.24982
H         49.94528       78.76234       21.89064
H         50.44767       80.19243       19.92874
N         53.51939       80.34260       24.88297
C         54.00714       78.98181       25.05382
C         55.26873       78.92874       25.92594
O         55.81592       77.84813       26.09484
C         54.33265       78.58913       23.60910
C         54.96169       79.87357       23.08458
C         54.01899       80.93303       23.65329
H         53.23545       78.29613       25.46849
H         54.94946       77.67273       23.49169
H         53.37184       78.43658       23.06343
H         55.95789       79.98190       23.56743
H         55.09844       79.92907       21.98350
H         54.54023       81.90294       23.79893
H         53.16219       81.05850       22.96194
N         55.81901       80.06127       26.45534
C         57.09911       80.08981       27.16044
C         57.05777       79.42497       28.52828
O         58.12499       79.23223       29.09598
C         57.56220       81.54968       27.37616
C         57.76871       82.32732       26.06592
C         58.15378       83.74955       26.35545
O         57.45010       84.66753       25.96415
O         59.27473       84.02022       27.05083
H         55.35421       80.95381       26.27314
H         57.85171       79.56845       26.52708
H         58.52455       81.55671       27.93529
H         56.79659       82.06341       27.99559
H         56.83983       82.33360       25.45900
H         58.57050       81.84564       25.46785
N         55.88717       79.11760       29.15717
C         55.83548       78.57006       30.50037
H         55.29991       79.28166       31.16435
H         55.29144       77.60431       30.48954
H         56.84463       78.39774       30.93283
H         54.98710       79.31611       28.69832
Ca        57.63359       86.17273       28.77995
O         58.43999       87.71046       26.08756
H         57.77795       88.15448       25.50101
H         59.20181       87.50475       25.48995
O         55.48740       88.02043       26.94515
H         55.97467       88.15627       27.79502
H         54.99029       87.17535       27.07828
O         60.75256       86.62828       27.94024
H         61.29649       86.51257       28.75904
H         60.59290       87.60375       27.88559
O         59.67582       85.50713       30.77823
H         59.67381       84.79169       31.46184
H         59.96704       86.31959       31.26349

Ca 1.0



