%chk=apoCaM-CA-Ng.loop1.water3.frame489.chk
%nprocshared=20
%mem=10GB
%nosave
#b3lyp/svp scf=(tight,noincore,xqc) Test 
#IOP(5/87=12) Density=Current Pop=(MK,readradii) iop(6/33=2) iop(6/42=6)

apoCaM-CA-Ng.loop1.water3.frame489 

   0  1 
C         65.56441       44.81533       75.07859
C         66.65812       45.82218       74.87229
O         66.39116       46.93208       74.43466
H         64.57814       45.22948       74.78367
H         65.77355       43.90897       74.47177
H         65.52521       44.52599       76.15107
N         67.93465       45.48967       75.19521
C         69.06905       46.40088       75.08229
C         69.51124       46.64277       73.63301
O         70.55086       47.25442       73.47265
C         70.28023       45.83020       75.87404
C         70.02589       45.70332       77.35545
O         69.16950       44.94646       77.78279
O         70.77328       46.41147       78.22482
H         68.09121       44.55002       75.59230
H         68.82138       47.37583       75.55895
H         71.13706       46.52767       75.76793
H         70.58418       44.84338       75.46093
N         68.84742       46.18348       72.52954
C         69.45593       46.22276       71.19512
C         68.67065       47.04944       70.18831
O         67.46894       46.83880       70.10221
C         69.56520       44.78577       70.65989
C         70.34871       43.87789       71.61520
C         70.52663       42.48701       71.00751
C         71.23122       41.54920       71.99228
N         71.44591       40.23465       71.39093
H         67.94331       45.70287       72.62703
H         70.47934       46.60916       71.25843
H         70.07861       44.81143       69.67454
H         68.54863       44.35761       70.51072
H         69.79387       43.79057       72.57545
H         71.34959       44.31855       71.81895
H         71.12931       42.57611       70.07681
H         69.53215       42.05956       70.75134
H         70.60415       41.43992       72.90589
H         72.21256       41.98181       72.28880
H         72.07224       40.32347       70.55782
H         71.90135       39.60804       72.09265
H         70.53207       39.81555       71.10216
N         69.24390       47.92805       69.29508
C         70.65990       48.31288       69.17532
C         71.57851       47.11017       68.99684
O         72.38452       46.83011       69.87014
C         71.07166       49.29260       70.29273
C         70.28910       50.57636       70.17718
O         69.38448       50.73981       69.18723
O         70.44671       51.46225       71.00217
H         68.60854       48.35173       68.60019
H         70.79345       48.92517       68.25787
H         72.14611       49.55272       70.19599
H         70.90402       48.84424       71.29183
N         71.56771       46.36074       67.86036
C         70.79435       46.74633       66.69291
C         71.04776       45.87584       65.47820
O         71.67640       44.83433       65.59973
H         72.21017       45.55596       67.81131
H         71.14337       47.76289       66.42070
H         69.70707       46.76705       66.91819
N         70.66025       46.26564       64.22743
C         70.01221       47.54436       63.93680
C         71.04142       48.53475       63.42793
O         72.16379       48.14457       63.13153
C         68.79779       47.38606       62.99649
C         69.13686       46.85292       61.62632
O         68.92658       47.53687       60.63769
O         69.62263       45.60663       61.47143
H         70.96596       45.67676       63.44061
H         69.61212       47.98595       64.87045
H         68.31677       48.38246       62.88141
H         68.05334       46.70859       63.46681
N         70.75059       49.86620       63.38865
C         71.73117       50.87053       63.00999
C         72.91195       50.97920       63.96813
O         73.80830       51.75277       63.66412
H         69.80395       50.18468       63.64638
H         71.24064       51.86808       62.97425
H         72.10195       50.63535       61.98926
N         72.98661       50.27234       65.13906
C         74.11026       50.36316       66.06744
C         74.73031       48.98836       66.25034
O         74.03779       48.07019       66.66837
C         73.63867       50.91516       67.43125
C         73.02105       52.31026       67.28794
O         74.73964       50.98908       68.30030
H         72.21185       49.65543       65.41433
H         74.88680       51.05905       65.68047
H         72.87543       50.21946       67.84947
H         74.37691       51.10189       69.21730
H         72.13243       52.28161       66.62370
H         72.69537       52.67973       68.28339
H         73.76698       53.01991       66.87023
N         76.04928       48.78173       65.96824
C         76.70855       47.48841       66.15445
C         76.70431       47.08283       67.62552
O         76.83018       45.89370       67.88892
C         78.17107       47.52070       65.57987
C         78.13403       47.77880       64.04605
C         78.95688       46.22258       65.88044
C         79.51312       47.99432       63.41548
H         76.60003       49.57778       65.61529
H         76.12991       46.72344       65.58787
H         78.71299       48.35690       66.07606
H         77.55259       48.69692       63.82924
H         77.62763       46.93124       63.53423
H         78.45619       45.34262       65.42400
H         79.99756       46.28123       65.50733
H         79.06616       46.05969       66.97103
H         79.39035       48.22427       62.33623
H         80.02793       48.84928       63.90303
H         80.14932       47.09025       63.48563
N         76.61487       48.00098       68.63614
C         76.74319       47.63170       70.04296
C         75.48110       47.96347       70.82729
O         74.66270       48.75329       70.37992
C         77.98950       48.32662       70.64480
C         79.26491       47.94441       69.87660
O         78.13943       47.96324       71.99257
H         76.51799       49.00168       68.41093
H         76.88824       46.53261       70.13293
H         77.83755       49.42967       70.56795
H         78.73454       48.64169       72.40772
H         79.19428       48.24599       68.80998
H         80.14341       48.46247       70.31579
H         79.43483       46.84774       69.92866
N         75.23854       47.30542       71.99545
C         74.03242       47.46534       72.81316
C         73.94889       48.84864       73.46624
O         74.83200       49.66847       73.25903
C         73.95653       46.31295       73.86061
C         75.07850       46.34054       74.90801
O         73.97873       45.08047       73.18272
H         75.92796       46.59135       72.27242
H         73.14133       47.34182       72.16585
H         72.99346       46.40089       74.40256
H         73.43789       44.43782       73.71334
H         74.93002       45.50654       75.62659
H         76.07893       46.21685       74.44740
H         75.05970       47.29256       75.47579
N         72.92221       49.14361       74.32305
C         72.82590       50.36877       75.10716
C         71.43100       51.02814       75.01977
O         71.24582       52.06829       75.63529
C         73.22974       49.96119       76.54231
C         73.47463       51.11479       77.52544
C         74.20817       50.63394       78.79560
C         73.41605       49.61650       79.63383
N         74.19311       49.18921       80.79842
H         72.24330       48.41326       74.54741
H         73.57675       51.10525       74.74677
H         74.20308       49.42926       76.44385
H         72.48635       49.24329       76.95087
H         72.52258       51.61893       77.79078
H         74.14416       51.85498       77.03537
H         74.43164       51.51970       79.42840
H         75.17869       50.17822       78.49628
H         73.17609       48.71678       79.02846
H         72.46351       50.08007       79.97154
H         75.07185       48.71357       80.48703
H         74.43295       50.01137       81.39836
H         73.62805       48.51180       81.35976
N         70.41123       50.50411       74.26724
C         69.07707       51.10601       74.13824
C         68.36602       51.19739       75.47126
O         68.14321       50.17734       76.10960
C         68.20559       50.27143       73.16153
C         66.74056       50.72085       72.95351
C         66.52547       52.15813       72.53318
O         66.68220       53.06415       73.33156
O         66.07785       52.44828       71.29757
H         70.58815       49.64912       73.73059
H         69.19136       52.12191       73.70138
H         68.17042       49.21731       73.51520
H         68.69268       50.25434       72.17642
H         66.15007       50.54600       73.87816
H         66.31941       50.05206       72.17005
N         67.91790       52.40320       75.91660
C         67.11535       52.53964       77.10961
H         66.18284       51.94363       77.00130
H         67.68317       52.19377       77.99637
H         66.83003       53.60466       77.24896
H         68.11465       53.25482       75.36989
Ca        67.43763       51.68454       69.71141
O         69.08613       53.68030       66.80249
H         69.94299       54.16185       66.92260
H         68.81577       53.88348       65.87170
O         68.63961       54.75826       70.10833
H         68.97870       53.83590       70.22301
H         69.44311       55.28707       69.87450
O         66.57966       55.65337       67.85059
H         67.43109       56.14735       67.74230
H         66.14997       56.06990       68.63956

Ca 1.0



