%chk=apoCaM-CA-Ng.loop3.water6.frame1128.chk
%nprocshared=20
%mem=10GB
%nosave
#b3lyp/svp scf=(tight,noincore,xqc) Test 
#IOP(5/87=12) Density=Current Pop=(MK,readradii) iop(6/33=2) iop(6/42=6)

apoCaM-CA-Ng.loop3.water6.frame1128 

   0  1 
C         70.91314       84.50595       74.79438
C         69.81198       84.68968       75.79264
O         68.65958       84.75570       75.39004
H         71.47461       83.57666       75.02427
H         70.49921       84.42543       73.76518
H         71.60028       85.37574       74.83730
N         70.09791       84.77119       77.12533
C         69.06938       84.93943       78.14761
C         69.28994       86.21152       78.95686
O         69.16034       86.18287       80.17255
C         68.96978       83.66929       79.02886
C         70.20782       83.32346       79.82225
O         70.19529       82.23707       80.61644
O         71.21705       84.00664       79.76609
H         71.08362       84.70158       77.41613
H         68.07898       85.05786       77.65809
H         68.73280       82.80560       78.37293
H         68.13143       83.79263       79.74516
N         69.58459       87.38446       78.32475
C         69.68962       88.68841       78.98106
C         68.31460       89.10461       79.47857
O         68.12946       89.40045       80.65130
C         70.75551       88.71815       80.10189
C         72.14166       88.24883       79.63547
C         73.21023       88.39814       80.73838
C         72.95163       87.59918       82.03399
N         72.93948       86.15447       81.80708
H         69.71505       87.36782       77.30148
H         69.98844       89.43043       78.20636
H         70.42302       88.08235       80.94407
H         70.83283       89.76274       80.47608
H         72.45725       88.87113       78.77016
H         72.09302       87.19417       79.29094
H         73.28093       89.47400       81.00855
H         74.19341       88.08946       80.32226
H         71.99866       87.91345       82.50994
H         73.76411       87.83833       82.75465
H         73.85073       85.84635       81.39662
H         72.79998       85.66702       82.72178
H         72.15264       85.89337       81.17490
N         67.28190       89.08769       78.59561
C         65.88606       89.34813       78.93232
C         65.06871       88.05811       78.85369
O         63.85563       88.10960       78.99867
C         65.34089       90.45459       77.99882
C         65.33306       90.11281       76.52664
O         65.65123       89.00548       76.12282
O         64.98301       91.05250       75.63219
H         67.49737       88.79739       77.63072
H         65.79357       89.72259       79.97557
H         65.97918       91.35407       78.13839
H         64.30524       90.72369       78.29865
N         65.68928       86.85609       78.67032
C         65.03316       85.57014       78.56212
C         65.42891       84.68451       79.72999
O         65.85544       85.21901       80.74470
H         66.71159       86.81495       78.61047
H         65.38767       85.14763       77.60238
H         63.92488       85.64795       78.53216
N         65.30857       83.32454       79.71751
C         64.91640       82.51405       78.57140
C         66.00405       81.47977       78.30782
O         66.28853       80.70997       79.21737
C         63.58859       81.79723       78.87726
C         63.11061       80.99111       77.69286
N         62.80015       81.59949       76.52339
O         63.00164       79.77825       77.79166
H         65.54539       82.82058       80.58820
H         64.74870       83.13984       77.68301
H         62.80784       82.54527       79.13074
H         63.72339       81.13158       79.75981
H         62.87427       82.62233       76.42289
H         62.47994       81.04788       75.71413
N         66.65434       81.33417       77.11821
C         66.45397       82.17822       75.94291
C         67.20694       81.64738       74.73060
O         67.75963       80.55944       74.79558
H         67.33857       80.56462       77.07232
H         66.78836       83.20532       76.18855
H         65.38069       82.20072       75.66450
N         67.25828       82.36077       73.56244
C         67.88515       81.78443       72.37036
C         68.34172       82.82856       71.35501
O         67.88587       83.96106       71.36218
C         66.88335       80.78060       71.74337
C         67.36812       80.02310       70.53009
C         66.69204       80.15080       69.30334
C         68.47020       79.15715       70.61665
C         67.11322       79.42848       68.18370
C         68.89113       78.43575       69.49399
C         68.21219       78.56934       68.27319
O         68.60479       77.87933       67.18350
H         66.83163       83.29706       73.52622
H         68.81952       81.27770       72.69850
H         65.96330       81.35048       71.48290
H         66.59295       80.02587       72.50429
H         65.83332       80.80453       69.21136
H         69.00089       79.03980       71.55261
H         66.58107       79.53425       67.24628
H         69.74395       77.77410       69.57361
H         69.35942       77.27385       67.20166
N         69.31729       82.47391       70.46543
C         69.86480       83.34123       69.42620
C         68.79475       83.69747       68.41785
O         68.08393       82.80727       67.97122
C         71.07612       82.64892       68.71169
C         70.65670       81.38610       67.90452
C         71.81272       83.66287       67.81332
C         71.82766       80.55948       67.38199
H         69.71761       81.53274       70.56265
H         70.26413       84.25983       69.91307
H         71.78646       82.34221       69.51187
H         70.02456       81.66871       67.03675
H         70.06664       80.71576       68.55342
H         71.16257       84.00563       66.98071
H         72.12235       84.54809       68.40890
H         72.73576       83.22472       67.38475
H         72.46654       80.22601       68.22611
H         71.42950       79.66160       66.86233
H         72.43498       81.13033       66.65244
N         68.65878       84.97515       67.97131
C         67.69655       85.33791       66.94004
C         66.69373       86.32400       67.48022
O         66.82435       86.76800       68.61229
C         68.43473       85.90262       65.71088
O         69.12186       87.07699       66.04686
H         69.27715       85.70960       68.35074
H         67.12527       84.44596       66.60435
H         67.70059       86.11776       64.90229
H         69.15722       85.14284       65.33807
H         69.43893       87.46969       65.19180
N         65.64860       86.70815       66.69743
C         64.66744       87.71288       67.06892
C         65.35652       89.05250       67.24945
O         65.17472       89.70452       68.26729
C         63.84797       87.26566       68.29219
H         65.55464       86.28865       65.75983
H         63.96076       87.82175       66.21699
H         64.48098       87.16044       69.19733
H         63.05189       88.00649       68.51243
H         63.36885       86.28499       68.08583
N         66.19889       89.50563       66.27190
C         66.91385       90.77965       66.29063
C         67.93111       90.92966       67.42286
O         68.55719       91.97918       67.48631
C         65.91368       91.94152       66.28438
H         66.33516       88.91384       65.43750
H         67.49222       90.85374       65.34203
H         65.31744       91.97250       67.21825
H         66.45002       92.90813       66.17713
H         65.22493       91.83374       65.41905
N         68.17857       89.94398       68.33568
C         69.14826       90.08525       69.41719
C         70.53404       90.28254       68.83474
O         71.17777       91.27686       69.14021
C         69.11079       88.83685       70.33617
C         69.97551       88.97729       71.60200
C         69.44106       90.03401       72.52864
O         68.20380       89.90929       73.04654
O         70.12783       90.99643       72.83112
H         67.67070       89.05766       68.26884
H         68.86348       90.96702       70.03250
H         69.45095       87.94790       69.76298
H         68.06309       88.64265       70.65676
H         71.02782       89.19826       71.32080
H         69.96429       88.01386       72.15497
N         71.04051       89.37573       67.95472
C         72.34166       89.52803       67.34441
H         73.13067       89.51163       68.12476
H         72.52269       88.69360       66.63321
H         72.38850       90.48566       66.78318
H         70.47368       88.55743       67.69017
Ca        65.16914       90.50664       73.45277
O         66.34535       91.24795       70.83042
H         65.82691       90.42005       70.67159
H         66.13091       91.83210       70.06094
O         66.83661       93.15424       73.32452
H         66.80839       93.66464       72.47671
H         67.59577       92.52965       73.21074
O         62.43470       89.56706       74.53085
H         62.60153       88.59146       74.50377
H         62.37984       89.78331       75.49547
O         63.32706       92.70388       73.01741
H         62.61205       92.83197       73.68992
H         63.81639       93.56437       73.00365
O         63.31861       89.24373       71.47419
H         63.40055       88.26848       71.32574
H         63.09743       89.61628       70.58425
O         65.32322       87.43647       73.48558
H         65.12481       86.75582       74.17676
H         65.69949       86.92259       72.72768

Ca 1.0



