%chk=apoCaM-CA-Ng.loop1.water3.frame1171.chk
%nprocshared=20
%mem=10GB
%nosave
#b3lyp/svp scf=(tight,noincore,xqc) Test 
#IOP(5/87=12) Density=Current Pop=(MK,readradii) iop(6/33=2) iop(6/42=6)

apoCaM-CA-Ng.loop1.water3.frame1171 

   0  1 
C        114.17746       40.83890       13.60788
C        113.46274       40.52925       14.89120
O        112.29234       40.17958       14.83424
H        115.24137       41.10058       13.78593
H        114.13758       39.95238       12.94118
H        113.68356       41.69573       13.10197
N        114.10780       40.63618       16.09075
C        113.48236       40.32945       17.37875
C        112.77773       41.54602       17.97596
O        113.03140       41.90810       19.11782
C        114.51848       39.69911       18.34486
C        115.69204       40.58416       18.71195
O        115.79678       41.72383       18.28411
O        116.64296       40.10393       19.53433
H        115.10319       40.89949       16.07265
H        112.69986       39.55491       17.21720
H        114.91854       38.77648       17.87367
H        114.00096       39.40659       19.28434
N        111.85504       42.22270       17.24447
C        111.09373       43.35818       17.74331
C        110.13079       42.89416       18.82614
O        110.20444       43.45041       19.91197
C        110.41448       44.12356       16.58001
C        111.50051       44.64497       15.61391
C        110.93072       45.29205       14.35344
C        112.08391       45.68933       13.41659
N        111.58302       46.23508       12.15840
H        111.68360       41.92173       16.28111
H        111.79626       44.09889       18.19227
H        109.84042       44.98929       16.97849
H        109.70723       43.47689       16.02759
H        112.13442       43.80130       15.27320
H        112.15443       45.36917       16.14902
H        110.32307       46.18385       14.61911
H        110.28265       44.55301       13.83340
H        112.70614       44.79256       13.19229
H        112.73133       46.44242       13.91916
H        112.39666       46.48875       11.55222
H        111.00678       45.51580       11.66357
H        111.00991       47.09005       12.33953
N        109.24906       41.85372       18.69236
C        109.02715       41.02822       17.50429
C        109.57428       39.61380       17.70972
O        110.14357       39.32729       18.75527
C        107.52089       41.03603       17.16191
C        106.72558       40.33199       18.21970
O        106.93004       39.02202       18.43894
O        105.93545       40.94818       18.90449
H        108.70545       41.60786       19.53322
H        109.54989       41.43427       16.62948
H        107.33159       40.53728       16.19085
H        107.18391       42.09218       17.06251
N        109.44885       38.68092       16.72481
C        109.98712       37.32762       16.79673
C        109.33704       36.42845       17.83870
O        108.47159       36.85920       18.57724
H        108.98786       38.95450       15.84359
H        111.08268       37.37491       16.97308
H        109.81868       36.84370       15.81048
N        109.70561       35.11282       17.88716
C        109.13208       34.09579       18.78804
C        109.54916       32.69296       18.33021
O        110.60224       32.56675       17.72222
C        109.65204       34.24966       20.24136
C        109.24014       35.50664       20.93837
O        107.93742       35.75606       21.16609
O        110.08791       36.28292       21.34827
H        110.39144       34.82036       17.17707
H        108.02662       34.16100       18.73311
H        110.76336       34.18309       20.22878
H        109.27701       33.41402       20.86703
N        108.85626       31.55356       18.63821
C        107.58462       31.45546       19.33911
C        106.43695       31.93162       18.48950
O        106.31155       31.45506       17.36881
H        109.27961       30.65766       18.34646
H        107.62532       31.95439       20.32713
H        107.38389       30.37725       19.52302
N        105.53907       32.84534       18.96196
C        104.42374       33.33823       18.15647
C        104.62078       34.80141       17.85859
O        105.50832       35.42027       18.42987
C        103.04417       33.06949       18.81736
C        102.80799       33.84253       20.12592
O        102.84929       31.69165       19.01325
H        105.66908       33.22511       19.91213
H        104.41973       32.82188       17.17147
H        102.25591       33.41134       18.11117
H        103.47960       31.39410       19.71976
H        101.78564       33.62945       20.50523
H        103.54117       33.55090       20.90510
H        102.88082       34.93661       19.94942
N        103.86369       35.39737       16.89609
C        104.03851       36.76959       16.44150
C        103.58318       37.75837       17.51134
O        103.85334       37.55449       18.68382
C        105.50555       37.05954       15.96719
C        106.16308       35.90736       15.15604
C        105.57438       38.37904       15.17880
C        105.43849       35.50522       13.87407
H        103.16331       34.82453       16.39969
H        103.37543       36.89417       15.55556
H        106.15044       37.17849       16.86100
H        106.24670       35.00357       15.79401
H        107.20514       36.20075       14.89925
H        104.93958       38.33188       14.26929
H        105.22844       39.23003       15.79814
H        106.61979       38.58752       14.86928
H        105.39649       36.34851       13.15702
H        105.99691       34.67194       13.39543
H        104.41254       35.14940       14.09860
N        102.94422       38.90523       17.15624
C        102.63519       39.97499       18.10738
C        101.51209       39.66216       19.10327
O        101.21252       40.54084       19.90009
C        102.37439       41.31056       17.35463
C        101.13654       41.28976       16.45226
O        103.49404       41.63637       16.56963
H        102.79647       39.06771       16.15027
H        103.54496       40.16327       18.71249
H        102.20836       42.12263       18.10217
H        104.17410       42.02542       17.17999
H        101.01625       42.28700       15.97705
H        101.23227       40.54202       15.63933
H        100.22411       41.06881       17.04233
N        100.85177       38.46526       19.14535
C         99.74857       38.20392       20.07836
C        100.19017       38.37008       21.52741
O        100.96740       37.55554       22.00445
C         99.17802       36.77482       19.85078
C         98.08545       36.38857       20.85607
O         98.63896       36.68333       18.55585
H        101.12109       37.72630       18.48232
H         98.94256       38.94106       19.86711
H         99.99878       36.02693       19.98352
H         99.33808       36.29754       17.96650
H         97.72499       35.36073       20.63607
H         98.48144       36.38267       21.89430
H         97.23077       37.09327       20.79885
N         99.72395       39.41691       22.28227
C        100.05316       39.62760       23.69231
C        101.54969       39.56324       23.88336
O        102.06311       38.61350       24.46042
C         99.25704       38.67630       24.60698
C         97.74757       38.95120       24.46811
C         96.92121       38.17352       25.49552
C         95.42315       38.45958       25.30940
N         94.62354       37.74601       26.30370
H         99.12423       40.12320       21.82997
H         99.72975       40.64851       23.99983
H         99.55337       38.89112       25.65848
H         99.48221       37.61138       24.38453
H         97.41977       38.68506       23.43968
H         97.55415       40.03594       24.63120
H         97.22848       38.48386       26.51922
H         97.10732       37.08485       25.37776
H         95.11262       38.13960       24.28981
H         95.23132       39.55237       25.40548
H         94.86618       38.08015       27.26473
H         93.61029       37.93442       26.12641
H         94.79450       36.71686       26.23255
N        102.30942       40.56667       23.37405
C        103.75956       40.53421       23.30906
C        104.19072       40.81115       21.87374
O        104.72249       39.88784       21.28134
C        104.42253       41.44941       24.35159
C        104.07946       41.01305       25.78371
C        104.80091       41.86210       26.78895
O        104.10430       42.60824       27.66679
O        106.02146       41.87250       26.82260
H        101.81159       41.36978       22.97903
H        104.11394       39.50680       23.56104
H        104.10674       42.49807       24.23594
H        105.52520       41.38043       24.21310
H        104.37041       39.95169       25.94404
H        102.98363       41.10678       25.94389
N        104.00124       41.98427       21.18806
C        103.44568       43.22463       21.68709
H        102.40305       43.11462       22.02451
H        104.08931       43.65405       22.47433
H        103.42730       43.97091       20.86446
H        104.29368       42.01366       20.20385
Ca       106.13774       37.82693       20.17674
O        106.49646       37.87011       23.27720
H        107.45972       37.69713       23.42601
H        106.05548       37.53986       24.09928
O        108.47256       39.36145       21.55744
H        108.29648       39.68776       20.64295
H        109.03946       38.56430       21.41930
O        104.07621       36.52213       21.92524
H        103.45131       36.08188       22.55382
H        103.56080       37.27848       21.54794

Ca 1.0



