%chk=apoCaM-CA-Ng.loop2.water5.frame400.chk
%nprocshared=20
%mem=10GB
%nosave
#b3lyp/svp scf=(tight,noincore,xqc) Test 
#IOP(5/87=12) Density=Current Pop=(MK,readradii) iop(6/33=2) iop(6/42=6)

apoCaM-CA-Ng.loop2.water5.frame400 

   -2  1 
C         80.18860       78.06741       -3.95106
C         78.73126       78.14282       -4.30491
O         78.11946       79.17171       -4.05587
H         80.74407       78.86394       -4.48908
H         80.31595       78.21559       -2.85843
H         80.62343       77.08379       -4.22643
N         78.10470       77.09426       -4.91036
C         76.69349       77.13300       -5.27564
C         75.83717       77.17543       -4.02223
O         75.87065       76.22611       -3.25131
C         76.33476       75.90635       -6.14252
C         74.91612       75.94812       -6.64816
O         73.88071       75.92139       -5.78697
O         74.69652       75.98628       -7.84826
H         78.66023       76.25643       -5.14393
H         76.52479       78.03828       -5.90196
H         76.49064       74.96772       -5.56736
H         77.02222       75.88840       -7.01751
N         75.04953       78.25533       -3.75733
C         74.18961       78.36253       -2.58273
C         74.68686       79.46704       -1.67142
O         75.69158       80.09036       -1.99089
C         72.75142       78.61733       -3.04351
H         75.06951       79.05378       -4.41147
H         74.20051       77.42050       -1.99455
H         72.05620       78.66692       -2.18032
H         72.68826       79.57149       -3.60929
H         72.41749       77.78738       -3.70170
N         74.03656       79.76882       -0.50923
C         74.52130       80.78689        0.41627
C         73.63315       82.01006        0.39205
O         72.59292       82.00076       -0.25593
C         74.61672       80.21551        1.84618
C         75.51424       79.01579        1.91044
O         75.10205       77.95953        2.36163
O         76.78055       79.11060        1.46903
H         73.16536       79.26992       -0.27105
H         75.53083       81.13699        0.10613
H         73.60249       79.94253        2.21579
H         75.03332       80.98714        2.52746
N         74.02084       83.13425        1.05426
C         73.20510       84.33709        1.05575
C         73.81211       85.55530        1.73715
O         73.06289       86.50303        1.92174
H         74.91274       83.09756        1.56080
H         72.25078       84.08844        1.56870
H         72.96939       84.63622        0.01028
N         75.13554       85.66181        2.07850
C         75.69778       86.85567        2.70296
C         76.61859       87.60525        1.74756
O         77.14268       88.63646        2.14890
C         76.46429       86.47183        3.98558
C         75.59955       85.74245        4.98256
N         75.93689       84.50283        5.41086
O         74.59316       86.28084        5.41907
H         75.80210       84.91313        1.85797
H         74.89194       87.56879        2.98385
H         76.84334       87.39453        4.47523
H         77.34008       85.84266        3.71299
H         76.78750       84.03529        5.06430
H         75.35022       84.00909        6.09965
N         76.84265       87.18761        0.46391
C         77.67856       87.93026       -0.46714
C         79.13163       87.95773       -0.05358
O         79.49764       87.34128        0.93799
H         76.38063       86.34147        0.10203
H         77.28953       88.96802       -0.54992
H         77.62326       87.45840       -1.47210
N         80.02917       88.67644       -0.78939
C         81.44294       88.76561       -0.42440
C         82.17517       87.43374       -0.59525
O         83.32502       87.35024       -0.18623
C         82.17322       89.89624       -1.20424
C         82.38243       89.60486       -2.70018
O         81.51828       91.12807       -1.01236
H         79.67377       89.20822       -1.59737
H         81.48174       89.05921        0.64763
H         83.19274       90.00588       -0.77378
H         80.76881       91.19322       -1.66023
H         81.41884       89.43371       -3.22296
H         82.90526       90.45972       -3.17839
H         83.03113       88.71627       -2.82183
N         81.58536       86.36255       -1.20584
C         82.23322       85.07514       -1.41820
C         81.47180       84.02477       -0.63622
O         80.26103       83.92584       -0.78833
C         82.25328       84.72377       -2.93786
C         82.96331       85.79956       -3.79942
C         82.87641       83.33644       -3.19086
C         84.44108       86.03733       -3.46449
H         80.62224       86.44498       -1.56000
H         83.28367       85.08747       -1.05695
H         81.20121       84.67769       -3.29949
H         82.41420       86.75525       -3.69742
H         82.89463       85.50486       -4.86929
H         82.29150       82.54354       -2.68190
H         82.86801       83.10456       -4.27719
H         83.91997       83.28671       -2.81767
H         84.56719       86.39297       -2.42281
H         85.04039       85.11631       -3.61334
H         84.84795       86.81928       -4.13945
N         82.14164       83.16056        0.17651
C         81.49444       82.08296        0.91180
C         81.91232       82.09182        2.39280
O         81.57821       81.16205        3.11231
C         81.84870       80.76529        0.19009
C         80.99677       79.59243        0.59285
O         80.00300       79.72646        1.49193
O         81.17721       78.51069        0.05793
H         83.17227       83.21240        0.21072
H         80.38824       82.18720        0.85328
H         82.92395       80.53565        0.32509
H         81.66401       80.90189       -0.89814
N         82.60548       83.13896        2.93273
C         83.01096       83.20490        4.33619
C         84.16352       82.24890        4.63047
O         85.11681       82.23153        3.86441
C         83.43077       84.64412        4.70313
C         82.25231       85.59111        4.62153
C         81.14019       85.41145        5.46854
C         82.24943       86.66060        3.71063
C         80.04728       86.27863        5.39808
C         81.15348       87.52796        3.64729
C         80.05414       87.33647        4.48760
H         82.80779       83.95961        2.34468
H         82.13741       82.95865        4.97003
H         84.25817       84.96685        4.03274
H         83.81081       84.67288        5.74790
H         81.11695       84.60195        6.18731
H         83.09054       86.82284        3.04884
H         79.19649       86.13071        6.05156
H         81.15414       88.35049        2.94628
H         79.20942       88.00983        4.43440
N         84.18123       81.46068        5.75435
C         85.24007       80.51610        6.10512
C         85.51137       79.50313        5.01466
O         86.66267       79.24612        4.69418
C         84.67271       79.78834        7.33342
C         83.86934       80.87861        7.99351
C         83.17188       81.51164        6.79466
H         86.16165       81.07964        6.37526
H         83.93456       79.01417        7.01964
H         85.44078       79.30033        7.97062
H         83.18635       80.54924        8.80447
H         84.59351       81.61636        8.41079
H         82.28360       80.93223        6.45875
H         82.88770       82.54699        7.08222
N         84.45825       78.92059        4.38030
C         84.55698       77.94348        3.30004
C         85.47158       78.46342        2.20860
O         86.42235       77.77634        1.85987
C         83.14170       77.67310        2.74081
C         82.22913       76.96455        3.76436
C         80.78908       77.08744        3.36059
O         80.01213       77.68239        4.09159
O         80.34731       76.63300        2.17450
H         83.52033       79.24636        4.65724
H         84.98138       76.98802        3.68235
H         83.18165       77.05117        1.81947
H         82.71022       78.66045        2.47186
H         82.31866       77.43536        4.76517
H         82.52936       75.90101        3.86904
N         85.27880       79.69220        1.65929
C         86.17440       80.23089        0.65921
H         87.20789       80.28180        1.06646
H         86.16631       79.58746       -0.24563
H         85.85577       81.25638        0.37717
H         84.49555       80.27643        1.98493
Ca        78.31184       77.46263        1.66463
O         78.37588       74.38181        1.20457
H         77.43761       74.14782        1.41669
H         78.55504       73.93156        0.34141
O         75.92500       76.18040        0.19752
H         76.33372       76.34753       -0.68703
H         74.96866       76.40478        0.07755
O         78.24726       78.80528       -1.00959
H         78.27643       79.71759       -1.39224
H         77.58483       78.31732       -1.55967
O         77.12034       75.83118        3.95653
H         77.05052       76.80904        4.09632
H         76.20170       75.54842        3.71905
O         79.16888       75.97620       -1.50400
H         78.45212       75.48797       -1.98159
H         79.98843       75.44925       -1.67822

Ca 1.0



