%chk=apoCaM-CA-Ng.loop3.water2.frame616.chk
%nprocshared=20
%mem=10GB
%nosave
#b3lyp/svp scf=(tight,noincore,xqc) Test 
#IOP(5/87=12) Density=Current Pop=(MK,readradii) iop(6/33=2) iop(6/42=6)

apoCaM-CA-Ng.loop3.water2.frame616 

   0  1 
C         95.38636       21.99880       82.24178
C         96.68360       22.38270       81.59960
O         97.07656       23.53843       81.67839
H         94.68926       21.60561       81.47379
H         95.57595       21.21020       83.00134
H         94.92172       22.87219       82.74616
N         97.42952       21.43489       80.97125
C         98.73938       21.71921       80.40824
C         98.61849       22.64551       79.20419
O         97.99126       22.28198       78.21848
C         99.44621       20.39910       80.03875
C        100.89710       20.56430       79.68232
O        101.55165       19.57899       79.38422
O        101.49018       21.77489       79.69866
H         97.07541       20.46523       80.95732
H         99.35063       22.18976       81.21127
H         98.90538       19.90581       79.20292
H         99.41621       19.72380       80.92112
N         99.21634       23.86755       79.23129
C         99.21456       24.81766       78.12036
C         99.89402       24.19307       76.91001
O         99.27075       24.09225       75.86206
C         99.92161       26.10931       78.60389
C        100.05948       27.25881       77.59281
C        100.70732       28.45908       78.31257
C        100.99422       29.64663       77.38796
N        101.59852       30.74662       78.14500
H         99.71370       24.12996       80.09637
H         98.16501       25.08450       77.85780
H        100.94141       25.85012       78.96348
H         99.33889       26.48750       79.47402
H         99.06289       27.55472       77.19828
H        100.70206       26.93212       76.74665
H        101.67154       28.13659       78.76376
H        100.03109       28.79536       79.13022
H        100.05080       29.99915       76.91665
H        101.69520       29.32638       76.58570
H        101.81770       31.53724       77.49738
H        100.93467       31.08596       78.87921
H        102.48601       30.42995       78.60041
N        101.18036       23.75091       76.99311
C        101.90940       23.16858       75.86481
C        101.54134       21.71257       75.56253
O        101.94895       21.22737       74.51915
C        103.43350       23.32571       76.07515
C        103.91965       22.76299       77.39246
O        103.71813       21.46907       77.70102
O        104.45804       23.49829       78.20371
H        101.67118       23.89619       77.88615
H        101.65847       23.75872       74.95419
H        103.66646       24.41382       76.05433
H        103.97885       22.85162       75.23109
N        100.78087       20.96080       76.40439
C        100.33387       19.59624       76.13810
C        101.38337       18.48581       76.07968
O        100.94339       17.34770       75.98397
H        100.43199       21.39704       77.26472
H         99.74172       19.57949       75.19783
H         99.64272       19.31215       76.96152
N        102.74031       18.68024       76.10566
C        103.69706       17.56346       76.06099
C        104.69232       17.62440       77.21074
O        104.80431       18.64400       77.86662
C        104.51298       17.55928       74.74517
C        103.69189       17.32053       73.50160
N        102.79814       18.23329       73.06216
O        103.86547       16.29521       72.85950
H        103.11577       19.63515       76.13192
H        103.16170       16.59158       76.14011
H        105.25677       16.73389       74.80529
H        105.08000       18.50991       74.63798
H        102.66341       19.11831       73.56123
H        102.25803       18.06571       72.20079
N        105.49328       16.55295       77.47197
C        106.57909       16.54715       78.44229
C        106.13411       16.85784       79.85006
O        105.22322       16.20275       80.33831
H        105.35063       15.68888       76.92587
H        107.36660       17.26083       78.12167
H        107.02929       15.53020       78.44829
N        106.78572       17.80933       80.59031
C        106.46836       18.05173       81.99414
C        105.28730       19.05691       82.13509
O        104.27501       18.75529       81.22823
C        107.70084       18.57171       82.77829
C        108.92433       17.67497       82.71101
C        110.15937       18.20665       82.29544
C        108.86467       16.32149       83.09437
C        111.30690       17.40730       82.26714
C        110.01338       15.52036       83.05357
C        111.23960       16.06321       82.64340
O        112.35728       15.30824       82.61132
H        107.60708       18.27833       80.17950
H        106.17908       17.08052       82.45337
H        107.42670       18.66482       83.85049
H        107.95930       19.58949       82.41196
H        110.24253       19.24723       82.00883
H        107.93398       15.88133       83.42603
H        112.25235       17.83572       81.95736
H        109.95186       14.47971       83.34750
H        112.35888       14.37479       82.86745
N        104.80271       19.12405       83.53791
C        103.37752       19.39270       83.85542
C        102.91972       20.75668       83.38050
O        102.93843       21.02086       82.18890
C        102.36557       18.29046       83.38992
C        100.92074       18.56931       83.90396
C        102.81963       16.87721       83.78802
C        100.74696       18.56114       85.42893
H        105.11171       18.29205       84.09178
H        103.33750       19.39074       84.96428
H        102.28010       18.29932       82.28627
H        100.23829       17.80261       83.47865
H        100.57335       19.55338       83.52150
H        102.95388       16.79005       84.88556
H        102.07162       16.12910       83.45024
H        103.77902       16.62225       83.29319
H        101.35067       19.34847       85.92030
H         99.68375       18.76271       85.67539
H        101.01639       17.57461       85.85657
N        102.41821       21.64984       84.27902
C        101.85502       22.94054       83.90793
C        102.66432       24.08968       84.48504
O        102.34032       25.23273       84.19160
C        100.38697       22.99239       84.36128
O        100.30326       22.85564       85.75656
H        102.40247       21.39265       85.27783
H        101.87149       23.06739       82.80324
H         99.84399       22.15906       83.85439
H         99.91774       23.95242       84.05699
H         99.44143       22.40314       85.95198
N        103.74752       23.87334       85.28784
C        104.59786       24.94814       85.77168
C        105.33323       25.58358       84.59131
O        105.83486       24.82453       83.77353
C        105.63742       24.39843       86.75521
H        104.00214       22.91372       85.55870
H        103.97000       25.64036       86.35702
H        105.12468       23.92246       87.61885
H        106.29094       23.64473       86.26650
H        106.26713       25.22882       87.14199
N        105.54014       26.92579       84.43006
C        105.17206       27.95931       85.38738
C        106.39646       28.33085       86.21138
O        107.50297       28.09686       85.74329
C        104.60668       29.17769       84.65461
H        106.12833       27.21585       83.63167
H        104.39157       27.58972       86.05731
H        105.36497       29.59434       83.95670
H        103.70824       28.88505       84.07088
H        104.31808       29.97194       85.37424
N        106.32808       28.82098       87.48454
C        105.10472       29.11429       88.22323
C        104.91347       28.09813       89.33542
O        103.86059       27.47642       89.37970
C        105.04740       30.58706       88.70500
C        106.02815       31.05440       89.79878
C        107.46721       31.06376       89.37303
O        108.38219       30.35904       90.06605
O        107.82046       31.73029       88.41349
H        107.22449       28.94709       87.97354
H        104.21884       29.03349       87.56598
H        104.02707       30.74627       89.11936
H        105.14552       31.25318       87.81926
H        105.89512       30.44057       90.71334
H        105.76015       32.09905       90.06663
N        105.90001       27.84011       90.24071
C        105.77402       26.86788       91.30762
H        104.77350       26.38759       91.33077
H        106.54039       26.07551       91.17448
H        105.94355       27.37100       92.28220
H        106.79926       28.33253       90.16791
Ca       104.24252       20.46873       79.68575
O        107.01858       21.17327       78.52680
H        107.43467       21.95367       78.97179
H        107.53855       20.39627       78.85174
O        105.55302       23.02282       80.86655
H        106.11394       22.59651       81.56181
H        105.36570       23.93072       81.21358

Ca 1.0



