%chk=apoCaM-CA-Ng.loop4.water3.frame164.chk
%nprocshared=20
%mem=10GB
%nosave
#b3lyp/svp scf=(tight,noincore,xqc) Test 
#IOP(5/87=12) Density=Current Pop=(MK,readradii) iop(6/33=2) iop(6/42=6)

apoCaM-CA-Ng.loop4.water3.frame164 

   -3  1 
C         62.54806       68.26127       36.01459
C         62.05312       68.87332       34.74202
O         62.46710       68.42497       33.69219
H         63.06491       69.02705       36.62597
H         61.69181       67.83743       36.57872
H         63.26233       67.43623       35.79310
N         61.13394       69.88046       34.75477
C         60.54963       70.47127       33.55153
C         59.84847       69.41495       32.73016
O         60.28905       69.10722       31.63841
C         61.50733       71.43274       32.79180
C         62.84620       70.94071       32.29582
O         62.98920       70.20328       31.17260
O         63.85528       71.38799       32.81818
H         60.78324       70.20646       35.66784
H         59.73728       71.16384       33.87051
H         61.72000       72.25043       33.51687
H         60.96715       71.90466       31.94158
N         58.72211       68.83446       33.24825
C         57.84618       67.83222       32.63559
C         57.08207       68.41068       31.44400
O         55.87724       68.58828       31.56394
C         58.56961       66.48386       32.36137
C         57.59455       65.37472       31.87199
C         59.32861       66.01170       33.61834
C         56.46174       65.01558       32.84760
H         58.43769       69.14484       34.19113
H         57.07753       67.61904       33.41080
H         59.32585       66.63410       31.56162
H         58.18248       64.45147       31.67464
H         57.13342       65.68652       30.91144
H         59.83845       65.04627       33.42463
H         60.10806       66.74701       33.90469
H         58.64640       65.88872       34.48486
H         56.85913       64.65412       33.81809
H         55.78656       65.87601       33.02624
H         55.84261       64.20479       32.41171
N         57.70435       68.77799       30.28876
C         57.03102       69.49227       29.21482
C         56.03791       68.58427       28.47782
O         54.86292       68.92187       28.48392
C         58.08484       70.23133       28.34188
C         57.47455       71.06254       27.25099
O         57.64446       72.39870       27.25096
O         56.85316       70.53363       26.34368
H         58.70533       68.60659       30.17874
H         56.45427       70.32928       29.67286
H         58.84390       69.56842       27.90163
H         58.65707       70.90743       29.01597
N         56.37527       67.43138       27.82289
C         57.73585       66.93803       27.73346
C         57.91528       65.71976       26.85404
O         56.92829       65.14317       26.41977
H         55.61756       66.91373       27.35185
H         58.11717       66.70922       28.74983
H         58.30277       67.71637       27.26011
N         59.15297       65.22317       26.53695
C         60.45577       65.79631       26.88928
C         60.64868       65.93770       28.39737
O         60.80148       67.05538       28.87087
C         60.75264       67.11072       26.11217
C         60.58428       66.93109       24.62996
O         59.69096       67.68254       23.95770
O         61.25713       66.11011       24.02757
H         59.18127       64.35872       25.97297
H         61.24523       65.10134       26.52882
H         61.79987       67.42257       26.31320
H         60.13029       67.95839       26.42951
N         60.72172       64.86471       29.23842
C         60.63775       63.47680       28.81888
C         59.21647       63.02116       28.62462
O         58.29136       63.77420       28.89109
H         60.92955       65.04431       30.23138
H         61.05323       62.83309       29.62349
H         61.25829       63.30788       27.91514
N         58.97661       61.74434       28.21954
C         57.63737       61.18325       28.10004
C         57.33496       60.23517       29.25573
O         56.21468       59.74772       29.32267
C         57.38721       60.62952       26.67189
C         58.39056       59.62390       26.06932
C         58.45782       58.30032       26.77945
N         58.09185       57.15357       26.16225
O         58.87687       58.25299       27.91834
H         59.78396       61.12368       28.05566
H         56.87559       61.98397       28.23109
H         57.40874       61.50952       25.99052
H         56.36139       60.20402       26.61865
H         59.40697       60.06901       26.02563
H         58.07248       59.44738       25.01862
H         57.74267       57.15736       25.19369
H         58.15950       56.25322       26.66001
N         58.23790       60.02660       30.26530
C         57.91846       59.34555       31.51768
C         58.79192       58.12315       31.78320
O         58.60562       57.51435       32.82703
C         57.98897       60.35800       32.70073
C         56.92253       61.45093       32.54163
C         59.37655       61.00419       32.87242
H         59.17676       60.43943       30.19737
H         56.87511       58.95848       31.49418
H         57.74897       59.80982       33.63867
H         57.10071       62.05522       31.62665
H         55.91116       60.99531       32.47556
H         56.93567       62.12450       33.42387
H         59.64510       61.63749       32.00116
H         59.37969       61.65953       33.76926
H         60.15661       60.22709       33.00958
N         59.71524       57.66916       30.88376
C         60.46351       56.42223       31.04927
C         61.97466       56.63133       31.03125
O         62.67318       55.67142       31.33276
C         60.13095       55.46558       29.86956
C         58.71516       54.93848       29.73584
N         57.76221       55.10424       30.68265
O         58.43718       54.30591       28.72801
H         59.86144       58.19390       30.01845
H         60.21532       55.93555       32.01687
H         60.78857       54.56985       29.90797
H         60.37225       56.01440       28.93133
H         57.95058       55.57894       31.56850
H         56.81887       54.71326       30.54103
N         62.56220       57.77917       30.57837
C         63.99643       57.87264       30.32921
C         64.58133       59.18703       30.78713
O         64.14462       60.22508       30.30845
C         64.25141       57.77684       28.81012
C         63.99628       56.39672       28.26613
C         64.82553       55.32961       28.65350
C         62.96039       56.16514       27.34909
C         64.62564       54.05269       28.12615
C         62.75640       54.88348       26.82851
C         63.58975       53.82531       27.20964
O         63.39108       52.59933       26.68566
H         61.97929       58.55964       30.24676
H         64.55129       57.04398       30.81971
H         65.31438       58.01659       28.58057
H         63.62153       58.53543       28.29334
H         65.63885       55.48989       29.35113
H         62.31166       56.97412       27.03737
H         65.28081       53.24410       28.42580
H         61.95440       54.71494       26.12173
H         63.95626       51.84668       26.91184
N         65.70227       59.18158       31.57114
C         66.60893       60.31377       31.74955
C         66.18159       61.31996       32.81013
O         67.04598       61.80318       33.52916
C         66.94127       60.97051       30.38578
C         68.33138       61.61745       30.35339
C         68.60000       62.24526       29.01408
O         68.90800       63.55320       28.93442
O         68.55372       61.57392       27.99450
H         66.06012       58.26707       31.88830
H         67.56044       59.86269       32.11609
H         66.15118       61.70554       30.11514
H         66.95917       60.17634       29.60571
H         69.09547       60.82633       30.52660
H         68.42580       62.38344       31.14967
N         64.88160       61.70608       32.96044
C         64.45355       62.72733       33.91197
C         64.64801       62.31068       35.36900
O         64.41814       63.14343       36.23657
C         62.95552       63.06447       33.71212
C         62.55853       63.52489       32.29886
C         63.19599       64.81548       31.88781
O         64.30477       64.83220       31.37752
O         62.56448       65.96895       32.16051
H         64.16968       61.28731       32.35951
H         65.05235       63.64553       33.72245
H         62.65899       63.86389       34.42785
H         62.35520       62.15763       33.94691
H         61.46098       63.68999       32.31961
H         62.73050       62.75807       31.51668
N         65.03189       61.05249       35.73168
C         65.17654       60.67012       37.12033
H         65.94486       61.30266       37.61332
H         64.20565       60.78749       37.64822
H         65.49018       59.60693       37.19121
H         65.20948       60.32950       35.02166
Ca        63.00464       67.95279       31.19671
O         62.07014       69.81324       28.30130
H         62.64503       70.58978       28.51750
H         61.46909       70.14217       27.58693
O         66.06154       67.89459       31.40849
H         65.71984       67.45205       32.22592
H         65.81392       68.84694       31.52048
O         63.98074       66.76425       28.50131
H         64.03976       67.12665       27.58193
H         64.83509       66.28211       28.63469

Ca 1.0



