%chk=apoCaM-CA-Ng.loop2.water3.frame39.chk
%nprocshared=20
%mem=10GB
%nosave
#b3lyp/svp scf=(tight,noincore,xqc) Test 
#IOP(5/87=12) Density=Current Pop=(MK,readradii) iop(6/33=2) iop(6/42=6)

apoCaM-CA-Ng.loop2.water3.frame39 

   -2  1 
C         66.44326       42.38440       50.96882
C         67.56016       41.93640       51.86600
O         68.71249       42.22978       51.58197
H         65.73704       43.02593       51.53547
H         66.83544       42.95826       50.10184
H         65.89859       41.49510       50.58539
N         67.28274       41.20942       52.98364
C         68.31543       40.68777       53.87455
C         69.19086       39.67190       53.15910
O         70.38086       39.63655       53.42776
C         67.67918       40.04342       55.11951
C         68.72181       39.55241       56.08856
O         69.52675       40.33088       56.57580
O         68.77533       38.24784       56.41707
H         66.29243       41.01700       53.20280
H         68.94252       41.53831       54.22810
H         67.02867       39.19650       54.81071
H         67.05005       40.79879       55.63871
N         68.66626       38.83151       52.21957
C         69.43937       37.87549       51.43153
C         70.55412       38.56710       50.65388
O         71.64353       38.02442       50.52732
C         69.94674       36.72245       52.30749
H         67.66001       38.90117       52.00399
H         68.74541       37.43600       50.68040
H         69.08871       36.23467       52.81718
H         70.45868       35.95945       51.68321
H         70.65711       37.08864       53.07737
N         70.33572       39.80497       50.12597
C         71.28392       40.58024       49.33374
C         72.60921       40.91498       50.03684
O         73.48181       41.47386       49.38629
C         71.52393       39.86952       47.97423
C         72.05366       40.86483       46.98336
O         73.12701       40.72144       46.42092
O         71.30961       41.96635       46.79705
H         69.41029       40.23218       50.26806
H         70.77693       41.54747       49.11796
H         70.54541       39.52949       47.56888
H         72.18388       38.98237       48.08511
N         72.85837       40.58778       51.33698
C         74.17890       40.68175       51.93401
C         74.78145       42.06576       52.02996
O         75.99679       42.11891       52.15330
H         72.12655       40.16062       51.90833
H         74.85951       40.05554       51.31568
H         74.17612       40.23511       52.95178
N         74.04127       43.21650       52.05742
C         74.67978       44.53476       52.15212
C         74.52002       45.14901       53.53583
O         73.71492       44.68352       54.32839
C         74.18565       45.45760       51.02280
C         74.56647       44.90715       49.66922
N         75.86908       44.77614       49.32248
O         73.69495       44.58200       48.87767
H         73.01155       43.16068       52.03668
H         75.77822       44.42221       52.04410
H         74.63226       46.47029       51.11931
H         73.08086       45.55998       51.09878
H         76.61943       45.05928       49.96903
H         76.13305       44.39804       48.40157
N         75.40198       46.12365       53.92283
C         75.52315       46.64763       55.27928
C         75.48734       48.15989       55.27781
O         76.26626       48.77258       54.56429
H         76.10100       46.44514       53.23684
H         76.51035       46.33674       55.67928
H         74.74112       46.22743       55.94804
N         74.56724       48.82035       56.03333
C         74.30622       50.25721       55.92078
C         72.99965       50.45997       55.15842
O         72.53435       51.58956       55.03965
C         74.29777       50.93439       57.31382
C         73.20178       50.41467       58.25546
O         75.55480       50.76366       57.91515
H         73.92014       48.25983       56.60622
H         75.09616       50.76035       55.32143
H         74.11768       52.02266       57.14019
H         75.65297       51.48603       58.58995
H         73.22902       50.98783       59.20647
H         72.19813       50.55140       57.80299
H         73.35285       49.34389       58.50011
N         72.38557       49.39976       54.56698
C         71.16250       49.42317       53.78946
C         71.51148       49.02874       52.36017
O         72.67795       48.72512       52.11441
C         70.11336       48.48212       54.48345
C         70.63494       47.01604       54.66368
C         69.72763       49.09909       55.84292
C         69.66536       46.06586       55.37031
H         72.83734       48.47914       54.60831
H         70.74559       50.45399       53.74089
H         69.19440       48.45705       53.85965
H         71.55415       46.98426       55.28232
H         70.86955       46.59350       53.66345
H         68.90845       48.53265       56.32859
H         70.59974       49.12238       56.53054
H         69.35827       50.13673       55.70126
H         70.11920       45.05167       55.41633
H         69.49233       46.38209       56.42075
H         68.70018       46.00640       54.83013
N         70.58738       49.00097       51.35610
C         70.95516       48.56799       50.00962
C         70.41273       49.50076       48.92279
O         69.91019       49.01325       47.92500
C         70.49734       47.09901       49.86704
C         71.04654       46.36061       48.67969
O         70.72316       45.06415       48.51625
O         71.80720       46.89650       47.88872
H         69.59755       49.20612       51.56952
H         72.06217       48.58095       49.90572
H         69.38646       47.05952       49.85998
H         70.85107       46.54074       50.76163
N         70.47602       50.86028       49.05322
C         69.98830       51.80722       48.03837
C         68.55110       51.50979       47.60324
O         67.67647       51.54253       48.45706
C         70.00403       53.25387       48.61386
C         69.23010       54.21764       47.72935
C         69.70069       54.58922       46.46025
C         67.97367       54.69020       48.15902
C         68.92232       55.41074       45.63436
C         67.19711       55.49946       47.32830
C         67.66976       55.85902       46.06567
H         70.86725       51.23861       49.92926
H         70.65911       51.76734       47.15725
H         71.03746       53.61468       48.80372
H         69.49027       53.20897       49.60020
H         70.65923       54.23281       46.10647
H         67.57624       54.40367       49.12522
H         69.28249       55.69025       44.65327
H         66.22285       55.83594       47.66056
H         67.06144       56.48040       45.42102
N         68.20474       51.31924       46.28537
C         66.82344       51.25082       45.82646
C         66.16014       49.93028       46.16073
O         64.95468       49.81794       45.99049
C         66.94251       51.46743       44.31276
C         68.26365       50.79130       44.00512
C         69.13284       51.26003       45.17075
H         66.22270       52.07852       46.26526
H         66.07172       51.12869       43.71090
H         67.09712       52.55452       44.12443
H         68.10439       49.69418       44.10273
H         68.69265       50.99250       43.00054
H         69.95280       50.52497       45.32290
H         69.54561       52.27406       44.99076
N         66.88906       48.87932       46.61777
C         66.31715       47.59216       46.97076
C         65.78505       47.60277       48.39999
O         65.23844       46.59421       48.82491
C         67.39622       46.50533       46.78445
C         67.85320       46.44067       45.31107
C         68.96508       45.46029       45.13524
O         70.16243       45.69492       45.69925
O         68.79385       44.44374       44.48226
H         67.90731       48.97573       46.67263
H         65.47950       47.35077       46.27826
H         66.98786       45.51167       47.07374
H         68.25929       46.73241       47.44890
H         68.22442       47.42151       44.95073
H         66.98281       46.14388       44.68676
N         65.90243       48.69952       49.20487
C         65.40421       48.73309       50.56109
H         64.30586       48.57281       50.56658
H         65.90594       47.95232       51.16967
H         65.61833       49.72611       51.01424
H         66.36113       49.55002       48.86286
Ca        71.54885       43.94294       45.80312
O         73.49722       43.32299       43.59857
H         72.58156       43.21521       43.23718
H         73.72542       44.26845       43.41433
O         72.70114       46.77898       44.60614
H         72.80359       47.66187       45.04212
H         73.41926       46.75216       43.92537
O         74.96646       45.04032       45.97281
H         75.55495       45.83518       46.02131
H         75.58908       44.27048       45.95751

Ca 1.0



