%chk=apoCaM-CA-Ng.loop3.water3.frame921.chk
%nprocshared=20
%mem=10GB
%nosave
#b3lyp/svp scf=(tight,noincore,xqc) Test 
#IOP(5/87=12) Density=Current Pop=(MK,readradii) iop(6/33=2) iop(6/42=6)

apoCaM-CA-Ng.loop3.water3.frame921 

   0  1 
C        -20.28440       12.56703       17.28217
C        -21.56348       12.43581       18.04859
O        -21.96737       11.31463       18.32357
H        -19.47814       12.04827       17.84292
H        -20.39404       12.10080       16.28172
H        -19.99538       13.63150       17.15795
N        -22.26572       13.54312       18.42124
C        -23.45999       13.48160       19.25267
C        -24.69400       13.78530       18.41190
O        -24.55194       14.38652       17.35546
C        -23.25561       14.48284       20.41882
C        -24.19539       14.37181       21.57580
O        -24.06350       15.22045       22.61270
O        -25.04167       13.50178       21.61925
H        -21.93372       14.47208       18.11686
H        -23.56083       12.45820       19.65211
H        -23.29754       15.51816       20.01497
H        -22.24625       14.32802       20.85107
N        -25.93813       13.37032       18.80142
C        -27.15582       13.67010       18.05178
C        -28.06324       14.62535       18.82349
O        -29.01589       15.11893       18.23594
C        -27.91480       12.37196       17.70440
C        -27.04724       11.37059       16.92441
C        -27.86785       10.13558       16.51509
C        -27.05588        9.10819       15.70599
N        -26.02952        8.44325       16.51158
H        -26.03771       12.81266       19.65837
H        -26.89280       14.19088       17.10550
H        -28.80684       12.63559       17.09421
H        -28.26480       11.88469       18.64254
H        -26.19117       11.06825       17.56168
H        -26.65632       11.86101       16.00682
H        -28.70572       10.48339       15.87185
H        -28.30251        9.63859       17.41019
H        -26.59014        9.60245       14.82470
H        -27.75846        8.33251       15.32822
H        -25.32048        9.12567       16.85944
H        -26.47553        7.94637       17.31697
H        -25.53884        7.73653       15.91733
N        -27.82712       14.93920       20.13237
C        -28.59043       15.91215       20.90449
C        -27.69694       17.02316       21.46439
O        -28.23315       17.93555       22.07837
C        -29.38132       15.19466       22.02935
C        -28.56020       14.43599       23.05803
O        -29.13610       13.84170       23.95295
O        -27.21100       14.41711       23.00385
H        -27.07036       14.46159       20.62249
H        -29.34079       16.40772       20.24856
H        -30.07736       14.47470       21.54601
H        -30.00074       15.94988       22.56230
N        -26.33696       17.02800       21.29673
C        -25.46335       18.08068       21.79915
C        -25.41996       18.22352       23.31630
O        -24.77514       19.15617       23.77287
H        -25.88325       16.28643       20.75056
H        -25.79830       19.04428       21.35885
H        -24.42501       17.89199       21.44683
N        -26.08247       17.37650       24.15785
C        -26.19387       17.57459       25.59907
C        -25.68673       16.37523       26.38292
O        -26.18726       15.27998       26.19009
C        -27.68302       17.78164       25.93740
C        -27.90886       17.88078       27.42753
N        -28.64601       16.94438       28.07116
O        -27.40050       18.79428       28.05992
H        -26.59361       16.58176       23.76554
H        -25.64024       18.48306       25.92363
H        -28.26135       16.91985       25.53523
H        -28.05962       18.70100       25.43986
H        -29.06667       16.15630       27.55645
H        -28.78366       16.99425       29.09089
N        -24.78463       16.54646       27.38825
C        -24.41702       15.49025       28.31622
C        -23.64554       14.38259       27.65347
O        -22.60165       14.66340       27.08083
H        -24.40561       17.48869       27.56707
H        -25.33113       15.10241       28.81748
H        -23.76387       15.92231       29.10506
N        -24.05661       13.08257       27.75745
C        -23.26157       11.97317       27.23817
C        -23.34421       11.85654       25.68628
O        -23.40738       13.10629       25.06519
C        -23.71124       10.62970       27.87395
C        -23.54790       10.55851       29.37392
C        -24.66112       10.30569       30.19255
C        -22.27850       10.68829       29.96638
C        -24.50853       10.18067       31.57633
C        -22.12912       10.56702       31.35207
C        -23.24069       10.30883       32.16087
O        -23.07839       10.17810       33.49311
H        -24.89995       12.87586       28.31492
H        -22.20206       12.15162       27.53006
H        -23.11336        9.78546       27.48256
H        -24.76842       10.44213       27.59270
H        -25.64657       10.18889       29.75963
H        -21.40139       10.86963       29.35826
H        -25.37540        9.97509       32.19143
H        -21.14621       10.66268       31.79684
H        -23.81935        9.98397       34.08502
N        -22.17248       11.08803       25.21192
C        -21.94081       10.91646       23.76325
C        -23.21697       10.53988       23.03539
O        -24.08080       11.39238       22.90239
C        -21.25133       12.15978       23.11215
C        -20.77290       11.88107       21.65855
C        -20.09418       12.69963       23.97210
C        -19.64593       10.84759       21.52417
H        -22.23399       10.12507       25.60644
H        -21.21987       10.07476       23.68835
H        -21.99399       12.98277       23.05025
H        -20.40033       12.83093       21.21733
H        -21.63523       11.54530       21.04623
H        -19.31252       11.93090       24.13618
H        -19.63772       13.58742       23.48271
H        -20.46947       13.02821       24.96417
H        -19.95315        9.85089       21.89687
H        -19.37548       10.73761       20.45321
H        -18.73481       11.17773       22.06467
N        -23.43190        9.28354       22.55356
C        -24.64993        8.96588       21.81480
C        -24.90197        7.48250       21.68225
O        -23.97130        6.70739       21.49628
C        -24.60642        9.60210       20.41487
O        -25.75148        9.28258       19.67057
H        -22.73280        8.54805       22.74172
H        -25.51622        9.38109       22.37686
H        -23.71704        9.22885       19.86250
H        -24.50994       10.70001       20.49092
H        -26.49368        9.83091       20.03288
N        -26.19524        7.04749       21.66002
C        -26.59043        5.66096       21.43998
C        -28.11535        5.52209       21.28120
O        -28.83175        6.47434       21.56547
C        -26.12635        4.80189       22.63283
H        -26.92731        7.76867       21.74971
H        -26.10695        5.34015       20.49240
H        -25.02744        4.84790       22.76594
H        -26.60402        5.17349       23.56580
H        -26.39560        3.73596       22.51307
N        -28.72852        4.37821       20.85215
C        -28.04239        3.18558       20.37083
C        -28.26206        2.02166       21.32036
O        -29.14293        2.10344       22.16407
C        -28.55672        2.85654       18.96201
H        -29.76080        4.36101       20.84098
H        -26.95866        3.37550       20.32193
H        -28.35413        3.71006       18.28117
H        -28.08377        1.95236       18.53210
H        -29.65296        2.67721       18.98972
N        -27.44456        0.92708       21.33565
C        -26.28148        0.73970       20.47621
C        -25.03331        1.05313       21.27536
O        -24.27324        1.91455       20.85434
C        -26.30326       -0.66849       19.85468
C        -25.21631       -0.83141       18.77868
C        -25.30979       -2.16813       18.10100
O        -24.26452       -3.01601       18.13242
O        -26.32313       -2.48232       17.49605
H        -27.61209        0.22089       22.07010
H        -26.29107        1.44199       19.62506
H        -27.29265       -0.80517       19.36347
H        -26.19425       -1.44527       20.64307
H        -24.21136       -0.71555       19.23757
H        -25.34192       -0.04511       18.00178
N        -24.79517        0.45162       22.47467
C        -23.67331        0.79869       23.32523
H        -23.01199        1.56518       22.86810
H        -24.05789        1.20934       24.28345
H        -23.07114       -0.10765       23.53603
H        -25.45830       -0.25164       22.83081
Ca       -25.58898       13.44744       24.32393
O        -26.25826       10.59405       25.35264
H        -26.92625       10.55158       26.08179
H        -25.75628        9.74400       25.42441
O        -27.94070       13.01500       26.46056
H        -27.47478       13.08383       27.33091
H        -28.68380       13.66559       26.52516
O        -27.49941       11.27982       22.76560
H        -27.63387       10.92949       21.85046
H        -28.39649       11.23529       23.18178

Ca 1.0



