%chk=apoCaM-CA-Ng.loop1.water3.frame147.chk
%nprocshared=20
%mem=10GB
%nosave
#b3lyp/svp scf=(tight,noincore,xqc) Test 
#IOP(5/87=12) Density=Current Pop=(MK,readradii) iop(6/33=2) iop(6/42=6)

apoCaM-CA-Ng.loop1.water3.frame147 

   0  1 
C         55.53010       44.31483       61.75456
C         54.12783       44.80613       61.55638
O         53.19061       44.11555       61.93058
H         56.09322       45.03458       62.38535
H         55.53518       43.32123       62.25050
H         56.03222       44.22604       60.76811
N         53.91651       46.01190       60.96315
C         52.59454       46.57103       60.70960
C         52.35261       46.79243       59.21618
O         51.32332       47.35157       58.88030
C         52.39386       47.85918       61.54726
C         53.30407       49.00776       61.20674
O         52.82181       50.07266       60.85908
O         54.63870       48.90236       61.35063
H         54.74191       46.55701       60.67161
H         51.80233       45.87292       61.05621
H         52.53605       47.61290       62.62204
H         51.34060       48.19777       61.42394
N         53.22565       46.33736       58.26434
C         53.08256       46.56579       56.82533
C         52.85821       45.24392       56.09011
O         53.56320       44.29998       56.41849
C         54.38567       47.19530       56.28433
C         54.75895       48.56981       56.86790
C         53.68273       49.63665       56.61543
C         54.16538       51.07364       56.86714
N         54.60377       51.29820       58.24182
H         54.04821       45.79268       58.55857
H         52.26153       47.25910       56.61222
H         54.29820       47.31035       55.18414
H         55.23428       46.50091       56.47322
H         55.69569       48.88169       56.35701
H         54.96414       48.48431       57.95652
H         52.79373       49.41647       57.24170
H         53.39107       49.60434       55.54759
H         53.32403       51.76541       56.63681
H         54.99999       51.30719       56.17050
H         53.81778       51.10204       58.89631
H         55.42931       50.70015       58.47057
H         54.88413       52.30001       58.34582
N         51.99245       45.06017       55.03398
C         51.11117       46.03660       54.38468
C         51.87670       47.26183       53.90329
O         51.62664       48.34150       54.41828
C         49.90503       46.43839       55.26720
C         49.04861       45.28379       55.66920
O         48.85075       45.06236       56.97709
O         48.49711       44.58394       54.83423
H         51.99456       44.12135       54.60288
H         50.65794       45.55965       53.48823
H         49.26011       47.13956       54.69635
H         50.22265       46.96383       56.18404
N         52.80555       47.23215       52.90548
C         53.08826       46.07991       52.05805
C         54.12205       46.41092       50.97874
O         54.75000       47.45901       51.05561
H         53.26920       48.13025       52.70010
H         52.13452       45.81787       51.55056
H         53.43822       45.21088       52.65502
N         54.34184       45.62267       49.88743
C         53.63431       44.38281       49.59084
C         52.60052       44.62362       48.50323
O         52.50101       45.72821       47.98720
C         54.64193       43.25861       49.23639
C         55.46388       43.47301       47.98390
O         56.37991       42.54938       47.63626
O         55.31100       44.45425       47.27345
H         55.00286       45.97773       49.18017
H         53.06941       44.04293       50.48196
H         54.09687       42.29899       49.11267
H         55.34013       43.13879       50.09238
N         51.75614       43.62252       48.13800
C         50.69214       43.79261       47.16716
C         49.64290       44.77056       47.64806
O         49.31044       45.69442       46.91909
H         51.85615       42.69575       48.57717
H         50.18572       42.81243       47.03038
H         51.10947       44.09866       46.18221
N         49.05265       44.59510       48.86476
C         47.91187       45.37195       49.34379
C         48.27135       46.18737       50.57310
O         48.91979       45.67884       51.47665
C         46.74370       44.41798       49.65714
C         46.28668       43.67221       48.40020
O         45.65831       45.15862       50.15756
H         49.39564       43.83062       49.46773
H         47.55391       46.07793       48.56127
H         47.09164       43.67063       50.41210
H         45.33524       44.69693       50.97479
H         45.94661       44.39623       47.62798
H         47.11227       43.06110       47.97842
H         45.44325       42.99601       48.65004
N         47.82879       47.47557       50.66766
C         48.14780       48.38852       51.75726
C         46.88660       48.78027       52.52960
O         46.50848       49.94296       52.54212
C         48.94440       49.61723       51.20772
C         48.18087       50.40327       50.09976
C         50.31925       49.14718       50.69376
C         48.83846       51.73524       49.74219
H         47.22959       47.83884       49.91267
H         48.81044       47.90088       52.50556
H         49.12400       50.29539       52.07281
H         47.15737       50.65721       50.43055
H         48.08686       49.78915       49.17978
H         50.86113       48.60338       51.49355
H         50.20446       48.46772       49.82223
H         50.95772       50.00227       50.39784
H         49.84637       51.59226       49.30719
H         48.21348       52.25860       48.98796
H         48.91020       52.37813       50.64563
N         46.24788       47.85854       53.30568
C         45.14431       48.19810       54.20704
C         45.74416       48.27377       55.60293
O         45.42959       47.48008       56.47793
C         44.00099       47.16772       54.06285
C         43.48050       47.10224       52.62166
O         42.94848       47.52042       54.92373
H         46.64005       46.90500       53.35744
H         44.72538       49.20425       53.97843
H         44.39958       46.16730       54.33995
H         42.37392       46.71638       55.02195
H         43.07728       48.08691       52.30491
H         44.29308       46.80547       51.92686
H         42.67410       46.34190       52.54669
N         46.72306       49.19607       55.81576
C         47.62057       49.21007       56.96661
C         46.91886       49.52442       58.28936
O         45.77363       49.95415       58.28484
C         48.79129       50.18035       56.61880
C         49.97740       50.15840       57.56835
O         48.31110       51.49561       56.49499
H         46.92605       49.84508       55.04103
H         48.04044       48.18379       57.04619
H         49.18833       49.82526       55.63380
H         48.83657       51.92999       55.77156
H         49.71620       50.55481       58.56727
H         50.35101       49.12367       57.63762
H         50.78766       50.79324       57.15260
N         47.56821       49.29439       59.47191
C         47.02054       49.56951       60.79786
C         46.97699       48.32743       61.69139
O         46.60299       48.49197       62.84672
C         47.90519       50.62239       61.51272
C         47.78265       52.03541       60.93009
C         48.63089       53.01920       61.75977
C         48.35855       54.49533       61.43091
N         48.67280       54.83429       60.04450
H         48.51886       48.89967       59.43984
H         45.98252       49.96597       60.73762
H         48.96599       50.28470       61.51658
H         47.57198       50.70988       62.57105
H         46.71497       52.33953       60.99437
H         48.10003       52.04920       59.86642
H         49.71040       52.78483       61.62969
H         48.38145       52.89419       62.83712
H         48.98152       55.12187       62.10829
H         47.29093       54.73008       61.64005
H         49.67377       54.61494       59.83798
H         48.04550       54.31564       59.38978
H         48.51323       55.85868       59.90732
N         47.32943       47.06814       61.28440
C         47.38917       45.97374       62.25572
C         48.55716       46.20239       63.19542
O         49.68787       46.26919       62.73237
C         47.54988       44.57387       61.62579
C         46.31666       44.13769       60.82410
C         46.34761       42.65547       60.54211
O         46.24208       41.86135       61.46355
O         46.49968       42.18723       59.29093
H         47.57386       46.88706       60.30003
H         46.43681       45.94212       62.83232
H         47.66489       43.86254       62.47475
H         48.46464       44.50889       60.99446
H         46.26400       44.73303       59.88943
H         45.38812       44.32741       61.40593
N         48.36094       46.30400       64.53737
C         49.46328       46.47000       65.45972
H         50.01138       47.40964       65.23643
H         49.08266       46.51327       66.50196
H         50.15892       45.60715       65.37389
H         47.40586       46.24237       64.92075
Ca        47.41040       43.55811       57.78109
O         45.17527       44.23317       55.90949
H         45.09547       44.88792       56.64765
H         44.24057       44.05340       55.63783
O         49.63660       41.55722       58.33180
H         50.24653       42.28283       58.61769
H         49.03233       41.42499       59.10464
O         46.26733       40.26261       56.65387
H         46.46023       39.65930       57.41510
H         46.26599       39.66914       55.86116

Ca 1.0



