%chk=apoCaM-CA-Ng.loop3.water3.frame793.chk
%nprocshared=20
%mem=10GB
%nosave
#b3lyp/svp scf=(tight,noincore,xqc) Test 
#IOP(5/87=12) Density=Current Pop=(MK,readradii) iop(6/33=2) iop(6/42=6)

apoCaM-CA-Ng.loop3.water3.frame793 

   0  1 
C         -8.67435       -7.55725       89.53516
C        -10.13133       -7.47704       89.88261
O        -10.69988       -8.49241       90.25758
H         -8.10643       -7.89145       90.43037
H         -8.52128       -8.28766       88.71479
H         -8.27607       -6.57042       89.21946
N        -10.79848       -6.28911       89.82003
C        -12.17210       -6.14489       90.29776
C        -13.15569       -6.52351       89.18565
O        -12.72650       -6.62845       88.04390
C        -12.37099       -4.68484       90.79561
C        -13.31425       -4.53426       91.96394
O        -12.90766       -4.04302       93.00403
O        -14.59000       -4.93041       91.89848
H        -10.27068       -5.44696       89.54174
H        -12.27363       -6.81327       91.17241
H        -12.64574       -4.02538       89.94411
H        -11.39559       -4.31247       91.18256
N        -14.48562       -6.72408       89.42982
C        -15.47196       -6.95271       88.36903
C        -16.51729       -5.84135       88.31215
O        -17.23104       -5.79203       87.31935
C        -16.16470       -8.31761       88.54037
C        -15.19955       -9.49327       88.34145
C        -15.90729      -10.82548       88.62263
C        -14.98523      -12.01788       88.33941
N        -15.64212      -13.27861       88.68467
H        -14.81362       -6.71407       90.40133
H        -14.97333       -6.93577       87.37463
H        -16.97799       -8.42293       87.78739
H        -16.62373       -8.36366       89.54879
H        -14.33026       -9.39885       89.02667
H        -14.83032       -9.47497       87.29183
H        -16.81435      -10.91643       87.98490
H        -16.21926      -10.84383       89.69025
H        -14.04985      -11.92117       88.93360
H        -14.71748      -12.02450       87.25874
H        -15.00372      -14.07321       88.45184
H        -15.84944      -13.30245       89.70985
H        -16.53036      -13.38712       88.14309
N        -16.67260       -4.91631       89.30796
C        -17.58506       -3.78252       89.21951
C        -16.85901       -2.44557       89.35542
O        -17.51249       -1.43433       89.13770
C        -18.73769       -3.92031       90.23825
C        -18.29383       -3.96071       91.67456
O        -17.64419       -2.91596       92.21757
O        -18.56014       -4.92821       92.36904
H        -16.13713       -5.01091       90.16995
H        -18.05907       -3.76634       88.21407
H        -19.29582       -4.85416       90.00680
H        -19.44171       -3.06912       90.11584
N        -15.53375       -2.33955       89.69539
C        -14.83274       -1.06436       89.72280
C        -14.38727       -0.66210       91.10802
O        -13.21190       -0.38307       91.29754
H        -14.97992       -3.17532       89.91780
H        -15.48392       -0.24266       89.35955
H        -13.96242       -1.11549       89.03221
N        -15.30398       -0.53029       92.10734
C        -15.02535        0.10686       93.39409
C        -15.16082       -0.86510       94.55152
O        -15.48212       -2.02424       94.33408
C        -16.05457        1.24807       93.58198
C        -16.04059        2.23978       92.44795
N        -14.94978        3.00000       92.20549
O        -17.03361        2.36454       91.74613
H        -16.27522       -0.81731       91.91769
H        -13.99203        0.51647       93.41857
H        -15.88088        1.79923       94.52872
H        -17.06949        0.79055       93.63930
H        -14.10954        2.91768       92.79511
H        -14.95179        3.68098       91.43183
N        -14.97137       -0.43221       95.83493
C        -15.25085       -1.26568       96.99096
C        -14.31334       -2.43736       97.13676
O        -13.25340       -2.45924       96.52624
H        -14.70548        0.54871       96.00641
H        -16.29475       -1.62965       96.89828
H        -15.19291       -0.66752       97.92603
N        -14.67869       -3.46973       97.95123
C        -13.87207       -4.66738       98.19251
C        -13.51704       -5.39909       96.90051
O        -13.90149       -4.96153       95.82805
C        -14.62481       -5.61713       99.16162
C        -14.85138       -5.00043      100.52365
C        -13.75684       -4.65414      101.33556
C        -16.15418       -4.78656      101.00563
C        -13.96174       -4.10282      102.60371
C        -16.35671       -4.23349      102.27470
C        -15.26384       -3.89104      103.07802
O        -15.47611       -3.36439      104.30116
H        -15.59443       -3.39466       98.42138
H        -12.90990       -4.35937       98.65604
H        -14.05424       -6.55238       99.33117
H        -15.59253       -5.90135       98.69105
H        -12.74358       -4.81762      100.99125
H        -17.01411       -5.04861      100.40215
H        -13.10788       -3.84465      103.21765
H        -17.36504       -4.07424      102.63589
H        -14.74767       -3.11969      104.88989
N        -12.72424       -6.51039       96.94902
C        -12.15823       -7.21680       95.80075
C        -13.22482       -7.76563       94.85746
O        -13.92893       -6.99410       94.22448
C        -11.13565       -6.31433       95.04527
C        -10.44212       -7.03905       93.86023
C        -10.09066       -5.72120       96.00869
C         -9.60626       -8.26500       94.24300
H        -12.43205       -6.85834       97.87416
H        -11.58629       -8.07224       96.21949
H        -11.68231       -5.45465       94.61335
H         -9.77998       -6.31528       93.33688
H        -11.21035       -7.36118       93.13161
H         -9.51671       -6.51720       96.52502
H         -9.38759       -5.06496       95.45304
H        -10.58235       -5.09504       96.78275
H         -8.78466       -7.99078       94.93502
H        -10.23404       -9.05155       94.70794
H         -9.15125       -8.69566       93.32659
N        -13.36864       -9.10989       94.68527
C        -14.29221       -9.68005       93.70190
C        -14.53763      -11.17162       93.89677
O        -15.00595      -11.80703       92.95985
C        -13.73094       -9.43255       92.28375
O        -12.52451      -10.12418       92.08829
H        -12.75775       -9.72785       95.23496
H        -15.28498       -9.18968       93.78819
H        -13.59609       -8.35237       92.08588
H        -14.45598       -9.78561       91.52057
H        -11.81914       -9.62136       92.57041
N        -14.29730      -11.79833       95.08441
C        -14.42191      -13.23704       95.26148
C        -15.51554      -13.55792       96.27892
O        -15.98881      -12.62704       96.91773
C        -13.04810      -13.73251       95.71879
H        -14.00088      -11.25638       95.90792
H        -14.66464      -13.70794       94.29700
H        -13.00247      -14.81681       95.80089
H        -12.27521      -13.43552       94.97835
H        -12.78279      -13.28878       96.70352
N        -15.99350      -14.81576       96.53932
C        -15.67546      -16.05093       95.81976
C        -16.20595      -17.24990       96.60071
O        -17.40256      -17.28725       96.85448
C        -16.32189      -16.07443       94.42471
H        -16.67105      -14.88677       97.31602
H        -14.59662      -16.15068       95.69137
H        -15.97020      -15.26334       93.76783
H        -16.06999      -17.03166       93.91772
H        -17.42669      -15.99347       94.50127
N        -15.42491      -18.29661       97.00441
C        -13.99648      -18.43436       96.73917
C        -13.19698      -17.38497       97.48856
O        -12.32591      -16.77363       96.88998
C        -13.50613      -19.84805       97.11395
C        -12.09128      -20.10925       96.56018
C        -11.59915      -21.50334       96.83314
O        -10.50687      -21.84597       96.40984
O        -12.34459      -22.38475       97.52846
H        -15.89890      -19.07087       97.49711
H        -13.83608      -18.34287       95.64077
H        -14.18699      -20.58923       96.63943
H        -13.53946      -19.99273       98.21651
H        -11.36879      -19.38723       96.99560
H        -12.11082      -19.96791       95.45617
N        -13.45024      -17.11984       98.80139
C        -12.75537      -16.09511       99.55656
H        -11.97697      -15.57722       98.95701
H        -13.48784      -15.33318       99.89900
H        -12.27141      -16.55222      100.44377
H        -14.19397      -17.64333       99.28662
Ca       -15.91171       -4.83315       93.72169
O        -17.61097       -3.88822       96.10435
H        -18.15816       -4.57389       95.64619
H        -17.76825       -3.06173       95.58250
O        -16.74268       -7.46804       92.20076
H        -16.77910       -8.43008       91.97129
H        -17.21597       -7.01899       91.45678
O        -16.84295       -7.09116       95.60863
H        -17.32102       -7.76547       95.06361
H        -16.16025       -7.60872       96.10466

Ca 1.0



