%chk=apoCaM-CA-Ng.loop1.water3.frame1188.chk
%nprocshared=20
%mem=10GB
%nosave
#b3lyp/svp scf=(tight,noincore,xqc) Test 
#IOP(5/87=12) Density=Current Pop=(MK,readradii) iop(6/33=2) iop(6/42=6)

apoCaM-CA-Ng.loop1.water3.frame1188 

   0  1 
C         11.61957        4.01923       95.13230
C         13.08966        3.77294       95.27843
O         13.74120        4.56790       95.93910
H         11.15517        4.05553       96.14052
H         11.45613        4.99464       94.62614
H         11.12985        3.22021       94.53991
N         13.69171        2.70273       94.67718
C         15.11872        2.41933       94.81359
C         15.91093        3.06860       93.68354
O         16.73439        2.41003       93.06121
C         15.35721        0.89134       94.85280
C         14.60004        0.21845       95.96037
O         13.76602       -0.63504       95.70138
O         14.84920        0.53915       97.24360
H         13.11442        2.06213       94.11147
H         15.49010        2.85508       95.76531
H         16.43955        0.67789       94.98853
H         15.03862        0.45702       93.87725
N         15.70396        4.37384       93.35261
C         16.45516        5.05034       92.30476
C         17.88987        5.29022       92.76342
O         18.77868        4.81498       92.07056
C         15.72601        6.31858       91.79750
C         14.34774        5.93690       91.21096
C         13.59262        7.14801       90.65140
C         12.17153        6.79156       90.16903
N         12.16842        5.85812       89.03985
H         14.96403        4.89825       93.83326
H         16.48702        4.38843       91.40771
H         16.33728        6.77908       90.99013
H         15.59323        7.07361       92.59556
H         13.72094        5.47462       92.00263
H         14.50029        5.19201       90.40108
H         14.17026        7.60539       89.81896
H         13.48968        7.90099       91.46238
H         11.66748        7.73164       89.85419
H         11.58639        6.35895       91.01132
H         12.55772        4.93009       89.31889
H         11.18115        5.71001       88.72782
H         12.71658        6.25372       88.24218
N         18.25013        5.92797       93.92233
C         17.35298        6.51738       94.91463
C         17.22951        5.63650       96.14984
O         17.86595        4.59689       96.23071
C         17.72352        7.99742       95.19406
C         19.19662        8.34544       95.24988
O         20.06414        7.85616       96.15696
O         19.63183        9.13184       94.42332
H         19.25714        5.94195       94.14883
H         16.31565        6.53441       94.54968
H         17.20188        8.37320       96.09747
H         17.31781        8.57866       94.33536
N         16.28762        5.94527       97.09084
C         15.87610        5.06038       98.17365
C         16.93614        4.76044       99.19477
O         18.05016        5.23164       99.07616
H         15.74544        6.81442       96.97597
H         15.51772        4.10115       97.75064
H         15.02536        5.53756       98.70750
N         16.62549        3.99033      100.27322
C         17.57192        3.70216      101.35300
C         16.83533        3.36288      102.65394
O         15.66565        3.00686      102.59995
C         18.48367        2.51026      100.96366
C         19.38893        2.79623       99.80346
O         20.31747        3.76721       99.89707
O         19.30955        2.13044       98.78374
H         15.64550        3.67823      100.35262
H         18.15318        4.62577      101.54491
H         17.83796        1.63452      100.73023
H         19.13884        2.21487      101.80175
N         17.42594        3.43141      103.88590
C         18.77440        3.91063      104.14880
C         18.92695        5.38724      103.86671
O         17.94841        6.11726      103.90156
H         16.87141        3.13648      104.70457
H         19.52184        3.31864      103.59143
H         19.01366        3.76788      105.22445
N         20.16215        5.89660      103.61062
C         20.41933        7.31144      103.34917
C         19.71594        7.75237      102.07240
O         19.90097        7.12278      101.04043
C         21.94155        7.57850      103.24788
C         22.65481        7.25707      104.57226
O         22.15069        8.93402      102.94421
H         20.95417        5.23654      103.60430
H         20.04709        7.91721      104.20542
H         22.35961        6.94153      102.43394
H         23.08849        9.01412      102.62841
H         23.74113        7.46438      104.47645
H         22.24609        7.88721      105.39128
H         22.54031        6.19162      104.85637
N         18.90754        8.85460      102.07968
C         18.16707        9.35168      100.92277
C         19.11207        9.72056       99.79156
O         19.21924        8.98499       98.82104
C         17.01026        8.39097      100.50145
C         16.07529        8.15255      101.71664
C         16.20420        8.98900       99.32259
C         14.94888        7.15157      101.46282
H         18.80838        9.38520      102.95822
H         17.65158       10.29350      101.22098
H         17.44439        7.42407      100.18158
H         15.63077        9.11741      102.04505
H         16.67084        7.75229      102.55775
H         16.83682        9.17269       98.43352
H         15.40959        8.29681       98.98423
H         15.73920        9.95384       99.61794
H         15.36876        6.17236      101.16462
H         14.36722        7.01274      102.39785
H         14.24664        7.51014      100.68458
N         19.74125       10.92739       99.81332
C         20.49217       11.45297       98.67826
C         21.89928       11.90310       99.03849
O         22.55791       12.40111       98.14142
C         19.69041       12.62122       98.03892
C         19.51144       13.82514       98.97416
O         18.41999       12.16740       97.64720
H         19.59120       11.53794      100.62998
H         20.60102       10.67729       97.88737
H         20.23515       12.99633       97.14037
H         18.54700       11.62708       96.82371
H         18.93373       13.55237       99.88066
H         20.49621       14.23559       99.28153
H         18.95279       14.62615       98.44577
N         22.41429       11.81012      100.30376
C         23.73523       12.32415      100.68663
C         24.83370       11.49868      100.01802
O         25.29168       10.51919      100.59083
C         23.86814       12.34181      102.23452
C         25.14923       13.04035      102.69463
O         22.77978       13.03941      102.79107
H         21.82530       11.39999      101.04035
H         23.80464       13.38613      100.35907
H         23.89059       11.29604      102.62278
H         22.13011       12.36620      103.12578
H         25.15277       14.09633      102.34727
H         25.19400       13.03768      103.80484
H         26.05160       12.52749      102.30437
N         25.20620       11.78458       98.73747
C         26.04907       10.95534       97.87944
C         25.43835        9.57402       97.67969
O         24.48653        9.23254       98.36565
C         27.51955       10.90777       98.33914
C         28.05314       12.32674       98.59827
C         29.57499       12.35899       98.76596
C         30.03652       13.77206       99.15441
N         31.49500       13.86365       99.18709
H         24.82601       12.63239       98.29657
H         26.04683       11.44763       96.87968
H         28.10993       10.42726       97.52762
H         27.64004       10.30178       99.26278
H         27.56075       12.72196       99.51433
H         27.79645       12.99020       97.74279
H         30.03926       12.06405       97.79860
H         29.89815       11.64260       99.55180
H         29.62526       14.02213      100.15858
H         29.64740       14.51569       98.42362
H         31.87963       13.70845       98.22668
H         31.76879       14.82098       99.50695
H         31.89175       13.15652       99.84700
N         25.88886        8.74236       96.69961
C         25.25466        7.45255       96.42627
C         23.75607        7.61456       96.18484
O         23.00459        6.95050       96.88387
C         25.90247        6.69968       95.24381
C         27.36443        6.32364       95.51969
C         27.92973        5.52848       94.37807
O         28.89606        5.94345       93.75880
O         27.37863        4.34704       94.03791
H         26.66772        9.06157       96.10493
H         25.38044        6.79944       97.32128
H         25.83855        7.28980       94.30728
H         25.33101        5.75604       95.08969
H         27.42558        5.70722       96.44249
H         27.97257        7.24044       95.66829
N         23.19993        8.46564       95.27241
C         23.89843        9.38098       94.39729
H         24.99341        9.33691       94.48647
H         23.62299        9.15790       93.34651
H         23.57836       10.41738       94.63740
H         22.17557        8.49620       95.20779
Ca        20.00747        6.37872       97.83031
O         23.14411        4.72080       99.06833
H         23.62489        4.62343       98.20840
H         23.03369        3.79244       99.39422
O         21.04991        3.93137       96.46556
H         20.17465        3.64207       96.82382
H         21.22054        3.31542       95.71049
O         22.23676        8.50471       99.94580
H         22.02541        8.24111       99.01607
H         22.92496        7.85533      100.23669

Ca 1.0



