%chk=apoCaM-CA-Ng.loop3.water3.frame865.chk
%nprocshared=20
%mem=10GB
%nosave
#b3lyp/svp scf=(tight,noincore,xqc) Test 
#IOP(5/87=12) Density=Current Pop=(MK,readradii) iop(6/33=2) iop(6/42=6)

apoCaM-CA-Ng.loop3.water3.frame865 

   0  1 
C         62.69424       68.19026       87.20050
C         63.10570       69.49437       86.57980
O         64.21887       69.61255       86.09561
H         61.74261       67.84242       86.74038
H         63.46184       67.40259       87.04700
H         62.53246       68.34044       88.28690
N         62.20975       70.51377       86.52905
C         62.44059       71.78258       85.84339
C         63.41627       72.68209       86.62932
O         63.50440       72.54499       87.84049
C         61.04853       72.38606       85.53444
C         60.99264       73.51733       84.56070
O         59.91639       73.86526       84.10515
O         62.10163       74.12144       84.13342
H         61.26970       70.32377       86.90863
H         62.85515       71.55181       84.84969
H         60.51218       72.65076       86.46978
H         60.48142       71.57481       85.02678
N         64.20522       73.59848       85.98682
C         65.24845       74.43128       86.60329
C         64.79090       75.88398       86.77925
O         65.24923       76.55394       87.69383
C         66.48339       74.34535       85.67913
C         67.80299       74.85853       86.24889
C         68.95873       74.42543       85.32717
C         70.27933       75.06552       85.76980
N         71.43360       74.29181       85.31245
H         64.13810       73.64383       84.96843
H         65.49532       74.01490       87.60443
H         66.27871       74.90749       84.74194
H         66.62265       73.27345       85.42454
H         67.98746       74.38774       87.24032
H         67.76541       75.96136       86.37044
H         68.77288       74.69320       84.26040
H         69.02445       73.31526       85.38654
H         70.33023       75.12370       86.87764
H         70.31303       76.10273       85.36514
H         71.49511       73.41375       85.88035
H         71.36114       74.04763       84.29893
H         72.30257       74.84854       85.47898
N         63.82992       76.39741       85.96565
C         63.20893       77.71294       86.07209
C         61.77474       77.57766       86.59497
O         61.35560       78.42327       87.37484
C         63.28859       78.47237       84.71185
C         63.10610       77.62119       83.45848
O         63.96556       77.65252       82.59338
O         62.06536       76.77226       83.31847
H         63.47692       75.79097       85.22466
H         63.72505       78.35344       86.82494
H         64.30972       78.90792       84.63221
H         62.58079       79.33231       84.72524
N         60.97431       76.53893       86.22281
C         59.60623       76.33116       86.67662
C         58.59836       76.61982       85.57227
O         57.40937       76.61546       85.85441
H         61.34188       75.86058       85.56233
H         59.37631       77.00102       87.53161
H         59.49498       75.28397       87.04016
N         59.00538       76.91871       84.30319
C         58.14796       77.37319       83.21810
C         58.19374       76.44903       82.01168
O         59.13846       75.70700       81.83765
C         58.67428       78.74460       82.71567
C         58.60434       79.87762       83.70549
N         59.07049       81.09778       83.34786
O         58.12609       79.71310       84.81750
H         59.99312       76.86854       84.08952
H         57.09602       77.45869       83.55906
H         58.09988       79.05937       81.81916
H         59.74199       78.62740       82.40991
H         59.47971       81.25002       82.41312
H         59.02427       81.89314       84.00119
N         57.21031       76.53791       81.07701
C         57.25503       75.98139       79.73277
C         57.67236       74.53521       79.61785
O         57.09025       73.66509       80.24920
H         56.40432       77.14163       81.28968
H         57.95798       76.60178       79.13645
H         56.25284       76.10230       79.27449
N         58.66496       74.21871       78.74023
C         59.18417       72.88153       78.53981
C         60.06384       72.50711       79.80259
O         61.04884       73.48101       80.08993
C         59.85903       72.80859       77.11267
C         58.84249       72.82198       75.95342
C         58.06718       71.67209       75.68825
C         58.68230       73.93643       75.09929
C         57.16883       71.63291       74.61105
C         57.76691       73.89962       74.02957
C         57.01326       72.74744       73.77907
O         56.15292       72.71863       72.73708
H         59.09090       74.97749       78.18506
H         58.35084       72.14496       78.47929
H         60.43879       71.87053       76.97635
H         60.58561       73.64216       76.99739
H         58.17443       70.78863       76.30194
H         59.25719       74.83841       75.25667
H         56.59668       70.73231       74.41784
H         57.64595       74.76399       73.38512
H         55.62735       71.93373       72.51919
N         60.75067       71.23448       79.55455
C         61.28187       70.53858       80.73910
C         62.52665       71.22958       81.29273
O         62.42130       72.23193       81.98349
C         60.23045       70.26042       81.85776
C         60.79704       69.28173       82.92718
C         58.88308       69.75882       81.29843
C         61.06172       67.85488       82.42217
H         60.14958       70.56655       79.01589
H         61.60230       69.55772       80.33524
H         60.00608       71.22186       82.37286
H         60.07542       69.21526       83.76845
H         61.74578       69.68648       83.34186
H         58.17520       69.54318       82.12652
H         58.40645       70.54010       80.67035
H         59.00694       68.85046       80.67495
H         61.84340       67.82793       81.63696
H         61.41912       67.22658       83.26343
H         60.13307       67.39378       82.02807
N         63.75335       70.71879       81.01225
C         65.00311       71.25718       81.55277
C         66.24486       70.88417       80.76942
O         67.22890       71.60326       80.89657
C         65.20674       70.74558       82.97896
O         64.98267       69.35955       82.98770
H         63.75970       69.90104       80.40058
H         64.96732       72.36118       81.50922
H         64.49608       71.25931       83.63546
H         66.23361       70.96743       83.34983
H         64.95395       69.07429       83.93127
N         66.33260       69.74444       80.03246
C         67.56331       69.31695       79.39294
C         68.04292       70.32180       78.36323
O         67.26626       71.18269       77.96939
C         67.31306       67.95531       78.74380
H         65.53310       69.10902       79.96867
H         68.32802       69.22422       80.19003
H         66.49277       68.03725       77.99812
H         68.19792       67.56828       78.22916
H         67.01015       67.23178       79.53094
N         69.32066       70.33353       77.88625
C         70.42142       69.47765       78.33867
C         71.44374       69.33170       77.22297
O         71.75249       70.33326       76.59176
C         71.10520       70.09876       79.56328
H         69.55341       71.11176       77.24817
H         70.07579       68.48926       78.67359
H         70.42044       70.10269       80.43616
H         71.99413       69.49174       79.84707
H         71.43012       71.13998       79.36198
N         72.08813       68.16638       76.92375
C         71.91251       66.87099       77.57829
C         70.54687       66.31079       77.25080
O         69.88142       65.79440       78.13829
C         73.05647       65.93305       77.12111
C         73.09510       64.57080       77.83477
C         74.42340       63.89459       77.61202
O         74.48814       62.82389       77.03063
O         75.55116       64.45984       78.08950
H         72.79259       68.22084       76.17068
H         72.03494       66.98893       78.68057
H         73.99977       66.47147       77.36267
H         73.01978       65.77294       76.02077
H         72.26227       63.93683       77.46063
H         72.98159       64.69983       78.93182
N         70.03886       66.46347       75.99554
C         68.67530       66.13895       75.64400
H         68.03983       67.03842       75.79549
H         68.63052       65.87650       74.56678
H         68.28221       65.29257       76.24375
H         70.59290       66.97552       75.29381
Ca        61.60121       75.15257       81.69379
O         63.48981       74.86475       79.56262
H         64.01365       75.56316       79.09752
H         63.93845       74.01198       79.33765
O         61.40576       77.04579       80.05144
H         60.60675       77.62504       80.07169
H         62.06498       77.46939       79.45309
O         64.46403       74.42574       82.70835
H         64.53880       75.39256       82.86314
H         65.37867       74.09571       82.88032

Ca 1.0



