%chk=apoCaM-CA-Ng.loop2.water4.frame1427.chk
%nprocshared=20
%mem=10GB
%nosave
#b3lyp/svp scf=(tight,noincore,xqc) Test 
#IOP(5/87=12) Density=Current Pop=(MK,readradii) iop(6/33=2) iop(6/42=6)

apoCaM-CA-Ng.loop2.water4.frame1427 

   -2  1 
C         87.19097       89.96694       18.93764
C         86.80544       90.36449       17.54043
O         87.20088       89.67099       16.61427
H         87.78151       90.77192       19.41927
H         86.27490       89.75904       19.53047
H         87.80615       89.04086       18.92144
N         86.00293       91.43415       17.26798
C         85.43418       92.33799       18.27155
C         85.65146       93.82532       17.94379
O         85.19349       94.64723       18.72679
C         83.91831       92.05753       18.45739
C         83.08962       92.30945       17.22648
O         81.74658       92.34954       17.27539
O         83.62525       92.53820       16.15764
H         85.75028       91.57150       16.27907
H         85.89978       92.15558       19.26205
H         83.55024       92.73103       19.26178
H         83.75616       91.01285       18.79892
N         86.33320       94.26384       16.84058
C         86.53725       95.69063       16.57108
C         85.28642       96.41808       16.07213
O         85.33231       97.63828       15.99409
C         87.63663       95.87781       15.51651
H         86.77982       93.57778       16.21569
H         86.89622       96.16956       17.50960
H         87.32880       95.42025       14.55080
H         87.83920       96.95807       15.34888
H         88.57854       95.39875       15.85654
N         84.18464       95.74994       15.61932
C         83.04900       96.40447       14.97054
C         81.72525       96.11283       15.65121
O         81.69050       95.45092       16.67904
C         83.03982       96.03783       13.46334
C         83.02717       94.57849       13.05229
O         82.00513       93.72670       13.30282
O         83.93405       94.18197       12.33766
H         84.18612       94.72820       15.63918
H         83.15616       97.51107       15.00791
H         83.96157       96.49083       13.03558
H         82.20094       96.53582       12.94142
N         80.57743       96.59799       15.09402
C         79.23947       96.36114       15.59198
C         78.47701       95.46008       14.63754
O         79.06764       94.87311       13.74141
H         80.63064       97.15398       14.23001
H         78.73266       97.34730       15.67930
H         79.24043       95.89502       16.59870
N         77.13568       95.30816       14.78902
C         76.30573       94.39675       14.00032
C         76.42742       94.58635       12.49047
O         76.29996       95.69911       11.99905
C         74.82632       94.57506       14.41484
C         73.87755       93.72663       13.59869
N         73.98253       92.37813       13.57999
O         73.00831       94.27258       12.93525
H         76.68095       95.86624       15.52965
H         76.60481       93.35411       14.24461
H         74.54509       95.64452       14.28423
H         74.71193       94.31859       15.49028
H         74.70987       91.89563       14.12606
H         73.33683       91.81474       13.00686
N         76.51349       93.47581       11.69384
C         76.38451       93.49966       10.24392
C         77.61973       93.99979        9.53542
O         78.60159       94.30845       10.19619
H         76.53240       92.54708       12.14168
H         75.49480       94.10842        9.97746
H         76.20758       92.46313        9.88917
N         77.67025       94.12832        8.17424
C         76.54254       93.87226        7.26965
C         76.23929       92.38711        7.02597
O         75.26506       92.12619        6.33368
C         76.77141       94.55234        5.88656
C         76.88835       96.08402        5.98162
O         77.87378       93.98991        5.21305
H         78.53803       94.52456        7.78324
H         75.63648       94.35159        7.70016
H         75.87465       94.36961        5.25395
H         78.70279       94.43225        5.53062
H         75.97104       96.50888        6.44190
H         77.76570       96.39139        6.58704
H         76.99826       96.51301        4.96255
N         77.02447       91.36917        7.49440
C         76.80652       89.95790        7.14264
C         76.55506       89.13528        8.40689
O         77.35177       89.25693        9.32673
C         78.03394       89.40282        6.35471
C         78.28230       90.27444        5.09255
C         77.80376       87.92529        5.96260
C         79.39948       89.76552        4.18023
H         77.84457       91.59395        8.07621
H         75.96114       89.85329        6.44368
H         78.93647       89.44494        7.00413
H         78.55552       91.30031        5.41926
H         77.35235       90.33969        4.48573
H         76.95441       87.83591        5.25288
H         78.70481       87.49116        5.48681
H         77.60347       87.29722        6.85467
H         79.55034       90.48475        3.34829
H         80.34838       89.65678        4.74457
H         79.12248       88.79326        3.72150
N         75.54723       88.21000        8.53684
C         74.56845       87.86435        7.49908
C         73.85722       86.53199        7.76215
O         74.00165       85.95130        8.83016
C         73.49478       88.98425        7.35882
C         72.66754       89.21903        8.60144
O         71.78167       90.05807        8.57790
O         72.88570       88.52837        9.73776
H         75.54364       87.66654        9.41370
H         75.10363       87.71721        6.54312
H         72.80185       88.72562        6.53075
H         73.95309       89.95191        7.09635
N         72.99892       86.03828        6.81990
C         72.03230       84.97849        7.08263
C         72.05175       83.88380        6.00896
O         72.04417       84.23293        4.83516
C         70.65477       85.66027        7.07395
C         69.57559       84.75384        7.58641
C         68.78606       84.00630        6.70104
C         69.35455       84.65346        8.96974
C         67.78547       83.16648        7.19683
C         68.34838       83.82030        9.46060
C         67.56434       83.07633        8.57490
H         72.91799       86.53725        5.92009
H         72.18622       84.55850        8.09775
H         70.41528       86.03360        6.05318
H         70.67941       86.56062        7.72869
H         68.95176       84.06872        5.63251
H         69.95785       85.22632        9.66452
H         67.18080       82.58716        6.51233
H         68.17770       83.75338       10.52712
H         66.78580       82.43035        8.95707
N         71.98291       82.54351        6.30366
C         71.90002       81.98102        7.64162
C         73.25045       81.97514        8.32592
O         73.29273       81.72680        9.52250
C         71.37790       80.56139        7.39415
C         72.04969       80.20723        6.08200
C         71.89248       81.50689        5.29149
H         71.16190       82.52162        8.26896
H         71.53222       79.84367        8.22882
H         70.28519       80.62351        7.18445
H         73.13139       80.05058        6.29617
H         71.66241       79.30267        5.56648
H         72.69443       81.57334        4.52426
H         70.89252       81.57808        4.80941
N         74.39598       82.22567        7.63026
C         75.71005       82.28707        8.24849
C         76.03708       80.92900        8.86868
O         76.20111       79.98759        8.10462
C         76.77652       82.65880        7.18596
C         76.52390       84.04311        6.55080
C         77.47656       84.29542        5.41798
O         78.80440       84.31514        5.63650
O         77.04861       84.48222        4.28919
H         74.33231       82.37026        6.61455
H         75.69883       83.10416        8.98710
H         76.76103       81.88561        6.38435
H         77.78705       82.65834        7.65059
H         76.63531       84.83625        7.31961
H         75.49468       84.11399        6.14278
N         76.12271       80.68565       10.21297
C         75.86958       81.62390       11.29158
H         75.03294       81.23616       11.91172
H         76.77205       81.70591       11.93035
H         75.58147       82.63548       10.96988
H         76.35320       79.72401       10.50871
Ca        81.07344       93.14678       15.27686
O         79.19524       90.34485       15.85588
H         78.24299       90.20401       16.08731
H         79.41845       89.58927       15.25627
O         82.13989       90.23828       14.68657
H         82.24195       89.69931       13.86270
H         82.82588       89.88189       15.30515
O         79.61353       91.42941       12.87367
H         80.20401       91.84567       12.19686
H         79.76796       90.45668       12.77133
O         78.71417       93.36877       17.23305
H         77.99485       93.98858       17.51320
H         78.47540       92.50497       17.65197

Ca 1.0



