%chk=apoCaM-CA-Ng.loop3.water3.frame722.chk
%nprocshared=20
%mem=10GB
%nosave
#b3lyp/svp scf=(tight,noincore,xqc) Test 
#IOP(5/87=12) Density=Current Pop=(MK,readradii) iop(6/33=2) iop(6/42=6)

apoCaM-CA-Ng.loop3.water3.frame722 

   0  1 
C         83.86790       94.35922      -22.85960
C         83.98924       93.86548      -24.27209
O         83.82437       94.65340      -25.19245
H         82.84752       94.75361      -22.68056
H         84.07254       93.54893      -22.12753
H         84.61015       95.16867      -22.69138
N         84.31923       92.56882      -24.51902
C         84.57366       92.06105      -25.85921
C         83.30811       92.06975      -26.71810
O         82.31922       91.46017      -26.33652
C         85.19520       90.64894      -25.77102
C         85.84480       90.18863      -27.04893
O         86.49172       89.00795      -27.06870
O         85.83098       90.87976      -28.05500
H         84.47256       91.94151      -23.71375
H         85.35652       92.70711      -26.30074
H         84.43747       89.91091      -25.43102
H         86.01016       90.67302      -25.01832
N         83.29825       92.71899      -27.91858
C         82.16975       92.74643      -28.85256
C         81.73361       91.34786      -29.24115
O         80.54358       91.06627      -29.24306
C         82.56509       93.45951      -30.17165
C         82.85415       94.95920      -30.02203
C         83.22091       95.55926      -31.39239
C         83.50759       97.06879      -31.34912
N         82.32216       97.85080      -30.99190
H         84.16421       93.18682      -28.20676
H         81.30497       93.28526      -28.40579
H         81.71969       93.36103      -30.89054
H         83.44963       92.95114      -30.61607
H         83.69525       95.12959      -29.31770
H         81.94166       95.44484      -29.61966
H         82.40350       95.37135      -32.12330
H         84.13731       95.04894      -31.76390
H         83.84344       97.38150      -32.36329
H         84.33366       97.28028      -30.63514
H         82.02120       97.64599      -30.01345
H         82.55583       98.86784      -31.05428
H         81.54115       97.64562      -31.65711
N         82.66354       90.43138      -29.61003
C         82.35810       89.11284      -30.14333
C         82.48661       88.04201      -29.07003
O         81.53285       87.29522      -28.89478
C         83.17330       88.86110      -31.44388
C         84.61803       89.30837      -31.40212
O         85.00263       90.18384      -32.16083
O         85.47823       88.79789      -30.51196
H         83.65409       90.68993      -29.50055
H         81.29121       89.05332      -30.46025
H         82.69274       89.46120      -32.24826
H         83.09659       87.79257      -31.73795
N         83.59159       87.92126      -28.28733
C         83.73023       86.90741      -27.24773
C         84.89532       85.97428      -27.49948
O         85.06550       85.04801      -26.71891
H         84.35506       88.58841      -28.41528
H         82.81717       86.27696      -27.18108
H         83.86438       87.40642      -26.26470
N         85.72525       86.13282      -28.57059
C         86.79129       85.21128      -28.92369
C         88.14295       85.90251      -28.91962
O         88.21264       87.12078      -28.99624
C         86.51402       84.68532      -30.34658
C         85.15912       84.02772      -30.44139
N         84.18487       84.55918      -31.21957
O         84.93570       83.01227      -29.80034
H         85.58214       86.91543      -29.20781
H         86.82491       84.36593      -28.20190
H         87.29753       83.96531      -30.66408
H         86.54813       85.55144      -31.04749
H         84.34526       85.42423      -31.75703
H         83.25762       84.11256      -31.27603
N         89.27435       85.15100      -28.84638
C         90.62570       85.67460      -28.95903
C         90.94186       86.78853      -27.98207
O         90.73690       86.62896      -26.78750
H         89.17569       84.13051      -28.72918
H         90.78722       86.02946      -29.99959
H         91.33579       84.83818      -28.78244
N         91.51942       87.93554      -28.44522
C         91.94535       89.04631      -27.59636
C         90.77824       89.95503      -27.23948
O         89.64632       89.64630      -27.58264
C         93.05487       89.85844      -28.32025
C         94.31452       89.05983      -28.55193
C         95.00521       88.48919      -27.46637
C         94.83551       88.91249      -29.84700
C         96.18881       87.77886      -27.67496
C         96.02653       88.20847      -30.05214
C         96.70620       87.63916      -28.96955
O         97.85526       86.96732      -29.18302
H         91.74702       87.98603      -29.45061
H         92.37742       88.65886      -26.64980
H         93.37811       90.72162      -27.70911
H         92.65410       90.26499      -29.27441
H         94.63533       88.59575      -26.45481
H         94.32973       89.35463      -30.69617
H         96.70588       87.34509      -26.82801
H         96.42488       88.11113      -31.05379
H         98.35730       86.56588      -28.45922
N         91.01175       91.11495      -26.54858
C         90.02407       92.11499      -26.15145
C         89.32444       92.71455      -27.37418
O         88.74333       91.97047      -28.14915
C         89.03078       91.55948      -25.08913
C         88.21645       92.69847      -24.40442
C         89.74851       90.70749      -24.02086
C         89.04549       93.68454      -23.55762
H         91.97687       91.32597      -26.26075
H         90.59962       92.91859      -25.65202
H         88.31739       90.87957      -25.59929
H         87.46715       92.23689      -23.72569
H         87.66070       93.27476      -25.17341
H         90.54893       91.27985      -23.50896
H         89.01996       90.34068      -23.26684
H         90.21602       89.81259      -24.48188
H         89.78008       94.24901      -24.16503
H         88.37086       94.43001      -23.08879
H         89.58115       93.16451      -22.73645
N         89.30433       94.06386      -27.59355
C         88.65484       94.65689      -28.76718
C         89.48061       95.73440      -29.45597
O         89.01007       96.24376      -30.46636
C         87.29870       95.24784      -28.35872
O         86.48554       94.25649      -27.80645
H         89.68247       94.68359      -26.86300
H         88.46046       93.87434      -29.53161
H         86.77446       95.69816      -29.23306
H         87.44424       96.04818      -27.60354
H         86.31658       93.60126      -28.53274
N         90.68451       96.17045      -28.98315
C         91.41388       97.26699      -29.61889
C         91.86019       96.90273      -31.02889
O         91.84673       95.72309      -31.35325
C         92.63040       97.62527      -28.76838
H         91.07660       95.75433      -28.12752
H         90.72439       98.13918      -29.66443
H         93.30142       96.74736      -28.66067
H         93.20555       98.42900      -29.24201
H         92.30146       97.95674      -27.75966
N         92.21437       97.82821      -31.97394
C         92.16053       99.28386      -31.83325
C         93.34756       99.93415      -32.54277
O         93.56813       99.59289      -33.69743
C         90.88379       99.77821      -32.52273
H         92.41236       97.46165      -32.91916
H         92.07746       99.60144      -30.77911
H         90.80839      100.88447      -32.44193
H         90.87456       99.49744      -33.59861
H         89.99136       99.33127      -32.03544
N         94.11623      100.93569      -32.01681
C         93.96116      101.53166      -30.69446
C         94.54297      100.65090      -29.61129
O         93.97862      100.60706      -28.52694
C         94.56714      102.95589      -30.62143
C         96.09049      103.05486      -30.81684
C         96.53524      104.48541      -30.69478
O         97.08163      105.04309      -31.63309
O         96.33711      105.15919      -29.54497
H         94.81233      101.35257      -32.65241
H         92.87953      101.70800      -30.50102
H         94.31443      103.37957      -29.62319
H         94.06638      103.58526      -31.39062
H         96.37841      102.67000      -31.81679
H         96.62062      102.46248      -30.04315
N         95.69030       99.94397      -29.82763
C         96.30545       99.08708      -28.83434
H         97.33786       99.44170      -28.63212
H         95.74321       99.07381      -27.87745
H         96.35396       98.04910      -29.22585
H         96.15713      100.00532      -30.74485
Ca        87.52619       89.68956      -30.17652
O         90.29063       90.48120      -30.76594
H         90.61904       91.41505      -30.75674
H         90.84158       90.02653      -31.45130
O         86.81684       92.39676      -30.91911
H         87.12680       92.54742      -31.84673
H         85.83333       92.49403      -30.96204
O         88.31504       87.94465      -32.24155
H         88.92989       87.45566      -32.84226
H         87.41193       87.78408      -32.61468

Ca 1.0



