%chk=apoCaM-CA-Ng.loop4.water3.frame416.chk
%nprocshared=20
%mem=10GB
%nosave
#b3lyp/svp scf=(tight,noincore,xqc) Test 
#IOP(5/87=12) Density=Current Pop=(MK,readradii) iop(6/33=2) iop(6/42=6)

apoCaM-CA-Ng.loop4.water3.frame416 

   -3  1 
C         78.39541       72.28456      101.49999
C         78.01664       71.03760      102.23916
O         78.18917       69.96497      101.68282
H         79.47445       72.23981      101.23897
H         77.80137       72.35622      100.56470
H         78.21378       73.19146      102.11219
N         77.52328       71.09444      103.51203
C         77.17929       69.91436      104.29784
C         78.37625       68.99540      104.45045
O         78.31895       67.85146      104.04725
C         75.81905       69.27195      103.87921
C         75.42092       69.21105      102.41661
O         76.00260       68.41182      101.49994
O         74.47392       69.89101      102.05127
H         77.43464       72.01432      103.96912
H         76.98085       70.23411      105.34708
H         75.05107       69.93556      104.34058
H         75.68890       68.28366      104.37061
N         79.47642       69.46321      105.11633
C         80.70499       68.73914      105.46110
C         80.41495       67.53039      106.34778
O         80.63159       67.61820      107.54844
C         81.58794       68.40588      104.22488
C         82.92840       67.71794      104.61304
C         81.85002       69.66407      103.38115
C         83.86256       68.55821      105.49343
H         79.42798       70.43667      105.45704
H         81.28902       69.45517      106.08122
H         81.03920       67.69831      103.57306
H         83.47614       67.45675      103.68162
H         82.71754       66.76591      105.14435
H         82.34043       70.46087      103.97558
H         82.50903       69.41382      102.52921
H         80.89824       70.06659      102.97525
H         84.15235       69.50105      104.98730
H         83.39433       68.79440      106.47017
H         84.79069       67.98404      105.69607
N         79.93612       66.36639      105.82382
C         79.49754       65.23209      106.61951
C         80.64192       64.25463      106.92261
O         80.87623       64.05680      108.10666
C         78.24026       64.62196      105.96736
C         77.57244       63.54040      106.77513
O         78.05679       63.15399      107.97135
O         76.55617       63.01822      106.34645
H         79.80190       66.29900      104.81166
H         79.12432       65.62164      107.59640
H         78.47875       64.24266      104.96077
H         77.49552       65.43762      105.83341
N         81.44574       63.61963      106.00728
C         81.42645       63.75702      104.55984
C         80.38974       62.87395      103.89027
O         79.68991       62.15476      104.58951
H         82.21445       63.04454      106.38671
H         82.40704       63.41547      104.16706
H         81.35301       64.82226      104.30507
N         80.22312       62.82397      102.53154
C         81.02317       63.56201      101.54700
C         80.93836       65.06567      101.75905
O         80.00430       65.50366      102.41292
C         80.54837       63.18929      100.11216
C         79.10543       63.55172       99.85273
O         78.74668       64.71809       99.86635
O         78.20648       62.58716       99.57970
H         79.49236       62.18477      102.17954
H         82.07757       63.24140      101.67491
H         80.67060       62.09343       99.97808
H         81.15521       63.67619       99.32983
N         81.83338       65.95422      101.23775
C         83.01699       65.63457      100.45636
C         84.14535       65.06259      101.27259
O         84.02133       64.89696      102.47805
H         81.65821       66.95274      101.40867
H         83.42418       66.58125      100.04661
H         82.77610       64.99651       99.59186
N         85.32946       64.81482      100.64581
C         86.55531       64.43191      101.33553
C         87.57130       65.57489      101.30670
O         88.56231       65.47702      102.01744
C         87.05990       63.04956      100.84756
C         87.21408       62.86291       99.32649
C         88.36191       63.61665       98.72786
N         89.63418       63.28765       99.04419
O         88.14693       64.49336       97.90766
H         85.37535       64.98044       99.62922
H         86.34262       64.30322      102.42034
H         86.28267       62.31715      101.15752
H         87.99726       62.77027      101.37659
H         86.26441       63.13021       98.81962
H         87.38862       61.78648       99.11187
H         89.83429       62.52697       99.70910
H         90.42280       63.76560       98.59157
N         87.33311       66.73627      100.61708
C         88.07345       67.97852      100.83300
C         88.84081       68.46543       99.61078
O         89.50123       69.48724       99.73403
C         87.09532       69.08594      101.34571
C         86.49709       68.70411      102.70763
C         85.95577       69.40616      100.35495
H         86.53399       66.78968       99.97622
H         88.84788       67.83155      101.61815
H         87.67909       70.02072      101.49822
H         85.88855       67.77776      102.63330
H         87.30822       68.54271      103.44881
H         85.84703       69.52331      103.08262
H         86.36093       69.70243       99.36510
H         85.26772       68.54610      100.21862
H         85.34497       70.24860      100.74298
N         88.84519       67.79412       98.42351
C         89.64286       68.22651       97.27511
C         88.79476       68.52955       96.05141
O         89.37508       68.91888       95.04487
C         90.68190       67.13633       96.94386
C         91.64051       66.91176       98.08832
N         92.44772       67.90589       98.52461
O         91.69888       65.81678       98.62219
H         88.30097       66.92801       98.33111
H         90.18694       69.16776       97.50046
H         91.28008       67.43249       96.05510
H         90.15014       66.18918       96.69917
H         92.42927       68.83616       98.08379
H         93.10083       67.74093       99.30484
N         87.43699       68.40295       96.04268
C         86.62590       68.67393       94.85275
C         85.13720       68.60726       95.13097
O         84.73962       68.06257       96.14911
C         86.99608       67.70656       93.69321
C         87.21410       66.27497       94.16116
C         88.49385       65.70320       94.03021
C         86.18933       65.50723       94.74560
C         88.74673       64.40617       94.47978
C         86.44512       64.20656       95.19520
C         87.72309       63.65316       95.06679
O         87.95868       62.40496       95.51939
H         86.96369       68.11183       96.90967
H         86.80954       69.72658       94.54129
H         87.94246       68.07196       93.24532
H         86.24510       67.75062       92.87532
H         89.30675       66.26611       93.58898
H         85.19529       65.90369       94.86823
H         89.74176       63.99195       94.37704
H         85.65075       63.63039       95.65334
H         88.83540       61.99732       95.46897
N         84.26384       69.13646       94.21675
C         82.80254       69.14637       94.29725
C         82.25172       70.16176       95.30036
O         81.48173       71.01872       94.88662
C         82.22536       67.72430       94.48219
C         82.65830       66.80961       93.32116
C         82.10583       65.42316       93.47041
O         82.43718       64.67368       94.53915
O         81.37324       64.95898       92.61132
H         84.66638       69.54209       93.35724
H         82.42096       69.49504       93.30947
H         81.11419       67.78321       94.48659
H         82.53869       67.29005       95.45396
H         83.76333       66.73816       93.27575
H         82.30642       67.24856       92.36135
N         82.55386       70.12054       96.62515
C         81.93799       70.99034       97.61974
C         82.28559       72.45534       97.43302
O         81.50395       73.29544       97.85888
C         82.32078       70.55347       99.05180
C         82.08078       69.05967       99.35702
C         80.66879       68.60604       99.11705
O         80.21617       68.56815       97.98449
O         79.91217       68.18226      100.14319
H         83.19324       69.40736       96.95663
H         80.83656       70.89017       97.51677
H         81.74278       71.16513       99.77944
H         83.40213       70.75534       99.22002
H         82.35115       68.89803      100.41300
H         82.75584       68.40809       98.76855
N         83.45496       72.84575       96.85474
C         83.79738       74.24373       96.69823
H         84.79500       74.34062       96.22054
H         83.04378       74.74877       96.05703
H         83.82957       74.74292       97.69090
H         84.12987       72.13897       96.52743
Ca        77.69138       66.93759      101.62297
O         76.99164       68.17016       98.68890
H         76.48015       67.86163       97.89962
H         77.62594       68.83780       98.32780
O         76.37956       64.95310      103.30055
H         75.91023       65.69910      103.75193
H         75.81155       64.73810      102.51934
O         75.57113       65.59439       99.78975
H         76.22521       65.45721       99.05944
H         75.12124       64.71813       99.88652

Ca 1.0



