%chk=apoCaM-CA-Ng.loop1.water2.frame68.chk
%nprocshared=20
%mem=10GB
%nosave
#b3lyp/svp scf=(tight,noincore,xqc) Test 
#IOP(5/87=12) Density=Current Pop=(MK,readradii) iop(6/33=2) iop(6/42=6)

apoCaM-CA-Ng.loop1.water2.frame68 

   0  1 
C         60.63257       49.14753       88.60925
C         60.07475       48.92076       89.98722
O         60.46722       49.62337       90.90747
H         61.73258       48.99612       88.62623
H         60.19805       48.44035       87.87056
H         60.41224       50.18292       88.27684
N         59.15173       47.94168       90.20542
C         58.56604       47.65540       91.51781
C         59.56623       47.10732       92.55192
O         59.14708       46.85732       93.67425
C         57.36168       46.69021       91.37560
C         57.73033       45.29906       90.92378
O         58.23373       45.10753       89.82876
O         57.47321       44.24746       91.72409
H         58.81921       47.41537       89.38483
H         58.14780       48.60850       91.90924
H         56.62360       47.12134       90.66350
H         56.85560       46.61465       92.36305
N         60.88831       46.91475       92.26829
C         61.88102       46.39094       93.20707
C         62.85893       47.48985       93.60346
O         63.31174       48.18916       92.70654
C         62.67659       45.26020       92.52883
C         61.88682       43.95178       92.41487
C         62.72495       42.91289       91.65102
C         62.13089       41.49694       91.67961
N         62.25352       40.88080       93.00425
H         61.24331       47.16249       91.33623
H         61.40843       45.97363       94.10224
H         63.57408       45.02856       93.14445
H         63.03212       45.60465       91.53214
H         60.92099       44.10473       91.88526
H         61.67159       43.60826       93.44758
H         63.75798       42.85904       92.05968
H         62.79248       43.25577       90.59512
H         62.70497       40.87424       90.95820
H         61.06847       41.51216       91.35143
H         61.89809       39.89897       92.95839
H         63.25978       40.85245       93.29188
H         61.69909       41.40024       93.71962
N         63.32125       47.69954       94.88245
C         63.00914       46.94004       96.10132
C         63.35084       45.46502       95.95077
O         62.44721       44.64134       95.89610
C         61.57670       47.16870       96.61678
C         61.28316       48.59449       96.94851
O         62.10295       49.48448       96.77971
O         60.04997       48.89879       97.36454
H         64.01444       48.45534       95.00023
H         63.63503       47.33006       96.93378
H         61.44284       46.59075       97.55063
H         60.80898       46.82842       95.90341
N         64.63630       45.01929       95.92105
C         65.78191       45.89270       96.14213
C         67.09900       45.14307       96.14990
O         67.12123       43.95237       95.87354
H         64.77699       44.00464       95.80369
H         65.66298       46.36693       97.13469
H         65.82060       46.67670       95.35633
N         68.27834       45.76178       96.43596
C         68.42205       47.16387       96.81927
C         67.88869       47.41798       98.22220
O         68.26306       46.70930       99.14718
C         69.90812       47.57345       96.78699
C         70.49056       47.41330       95.40899
O         71.53439       46.58662       95.20994
O         70.02100       48.03016       94.46549
H         69.13502       45.18971       96.35922
H         67.90358       47.81460       96.07992
H         70.48795       46.95891       97.51023
H         70.00374       48.64209       97.08113
N         67.07860       48.48682       98.45958
C         66.62442       48.88418       99.78412
C         65.56529       47.97510      100.35948
O         65.22760       46.96131       99.76551
H         66.83867       49.10928       97.67348
H         66.15779       49.88904       99.69733
H         67.48878       48.97350      100.47927
N         64.95803       48.33378      101.52895
C         63.86989       47.57402      102.14700
C         62.66247       47.43450      101.21433
O         62.65016       48.01673      100.13684
C         63.46012       48.20661      103.51439
C         62.92165       49.64466      103.39567
O         64.56989       48.19481      104.37612
H         65.29617       49.19094      101.99089
H         64.24709       46.54762      102.35179
H         62.65811       47.57490      103.95901
H         64.22196       48.30363      105.30078
H         63.69311       50.34228      103.01063
H         62.03546       49.68417      102.72961
H         62.61578       50.01115      104.39951
N         61.60593       46.65445      101.58114
C         60.41949       46.42556      100.76066
C         59.23521       47.07824      101.44596
O         58.94972       46.74608      102.58968
C         60.19139       44.89239      100.56205
C         61.34994       44.27199       99.73575
C         58.83052       44.61705       99.88235
C         61.31344       42.74247       99.66964
H         61.63434       46.19182      102.50309
H         60.53205       46.88929       99.75653
H         60.17233       44.41648      101.56810
H         62.32419       44.54955      100.19059
H         61.32671       44.66948       98.70095
H         57.99440       45.01886      100.49154
H         58.79216       45.08341       98.87516
H         58.63305       43.53167       99.78934
H         61.38442       42.31529      100.69203
H         60.39470       42.36706       99.17723
H         62.17761       42.37962       99.07374
N         58.48764       48.00838      100.78230
C         57.33071       48.68380      101.36475
C         56.03002       48.34984      100.63255
O         54.99351       48.83792      101.05676
C         57.58132       50.21253      101.41761
C         57.58519       50.85833      100.03073
O         58.81345       50.47675      102.03953
H         58.75194       48.24507       99.81425
H         57.19280       48.34595      102.41539
H         56.76543       50.70627      101.99290
H         58.72329       50.21199      102.99147
H         56.60549       50.72575       99.52575
H         57.78304       51.94714      100.11705
H         58.37050       50.40433       99.40692
N         56.00196       47.50525       99.55352
C         54.79302       47.04924       98.86403
C         54.07872       48.17073       98.10054
O         54.42953       49.33576       98.22786
C         53.84982       46.29054       99.85521
C         54.59004       45.17632      100.60174
O         52.77282       45.70331       99.17167
H         56.88197       47.09480       99.21411
H         55.12399       46.32152       98.08829
H         53.46218       47.01670      100.60551
H         51.97733       45.75272       99.76400
H         53.88708       44.65858      101.28859
H         54.99698       44.43499       99.88161
H         55.42170       45.58642      101.21101
N         53.05245       47.84799       97.25998
C         52.21823       48.79643       96.51813
C         52.93569       49.55704       95.40656
O         52.30733       50.42410       94.81393
C         50.96634       48.05887       95.97935
C         51.26651       46.96265       94.93256
C         50.04337       46.04726       94.75710
C         50.31194       44.84713       93.83447
N         50.49393       45.24619       92.43998
H         52.80958       46.85472       97.19504
H         51.84324       49.54657       97.24993
H         50.23502       48.77914       95.55054
H         50.48507       47.59191       96.86773
H         52.09689       46.31204       95.26866
H         51.57564       47.43775       93.97796
H         49.16396       46.62290       94.39704
H         49.79523       45.62614       95.75726
H         49.43858       44.16051       93.89486
H         51.20537       44.28665       94.19205
H         50.64192       44.38760       91.86178
H         49.63566       45.73669       92.09846
H         51.32767       45.86546       92.33393
N         54.24187       49.33413       95.08566
C         54.95494       50.15169       94.10880
C         54.45511       49.96534       92.69174
O         54.44135       48.84863       92.19225
C         56.46910       49.86760       94.13570
C         57.16404       50.34375       95.42485
C         57.15356       51.85680       95.63911
O         57.88482       52.39602       96.63229
O         56.55023       52.60839       94.89202
H         54.76846       48.60953       95.59253
H         54.80434       51.20967       94.37874
H         56.96775       50.39578       93.29250
H         56.63697       48.77556       93.99280
H         58.21656       50.01210       95.34052
H         56.72638       49.83709       96.31241
N         54.11324       51.06574       91.95950
C         53.73167       51.02835       90.56412
H         52.72806       51.48550       90.44510
H         54.46335       51.62397       89.97531
H         53.71298       49.99719       90.15646
H         54.16797       51.99851       92.39640
Ca        59.49518       51.04154       97.31851
O         60.55562       50.59040       94.37560
H         60.89182       51.06400       93.57486
H         60.32010       49.68502       94.05097
O         61.31878       51.20776       99.83584
H         61.00981       50.27682       99.70146
H         60.50936       51.69784      100.12710

Ca 1.0



