%chk=apoCaM-CA-Ng.loop3.water7.frame1146.chk
%nprocshared=20
%mem=10GB
%nosave
#b3lyp/svp scf=(tight,noincore,xqc) Test 
#IOP(5/87=12) Density=Current Pop=(MK,readradii) iop(6/33=2) iop(6/42=6)

apoCaM-CA-Ng.loop3.water7.frame1146 

   0  1 
C         53.59952       65.95527       85.89689
C         52.98070       65.46111       84.62165
O         53.29584       65.98691       83.56502
H         54.31174       66.78503       85.69666
H         52.81006       66.31549       86.58794
H         54.15702       65.12517       86.38158
N         52.10139       64.42073       84.65136
C         51.51432       63.82155       83.45473
C         49.98564       63.84937       83.46900
O         49.38830       63.24826       82.58673
C         52.05509       62.38564       83.28044
C         51.56390       61.39774       84.30520
O         51.82581       61.56578       85.61471
O         50.94706       60.41028       83.94021
H         51.87253       64.01096       85.56875
H         51.84665       64.37026       82.54653
H         53.16621       62.41302       83.30335
H         51.75504       62.02225       82.27219
N         49.28426       64.55795       84.40551
C         47.82414       64.61524       84.48767
C         47.21896       65.06566       83.16815
O         46.39940       64.36150       82.59274
C         47.23322       63.27738       84.98437
C         47.86437       62.84787       86.31973
C         47.13249       61.67699       86.99837
C         46.97766       60.40222       86.15113
N         48.26318       59.85717       85.72209
H         49.79868       65.12194       85.09697
H         47.55713       65.37874       85.25271
H         47.38788       62.47758       84.22882
H         46.13974       63.42334       85.12781
H         47.83067       63.70072       87.03254
H         48.93295       62.59047       86.15421
H         46.11334       62.01680       87.28370
H         47.67981       61.42844       87.93385
H         46.34440       60.60826       85.26109
H         46.44815       59.64301       86.76833
H         48.09813       58.95902       85.21276
H         48.72594       60.52431       85.06790
H         48.87782       59.67470       86.54798
N         47.63216       66.23581       82.61499
C         47.20821       66.71022       81.30151
C         48.36456       66.64670       80.30561
O         48.16062       66.96502       79.14214
C         46.54432       68.10101       81.41517
C         47.39814       69.18944       82.01127
O         47.62142       70.32515       81.32719
O         47.81207       69.09815       83.15556
H         48.34087       66.77885       83.12857
H         46.43061       66.03447       80.88155
H         45.64484       67.99980       82.06105
H         46.19648       68.41987       80.40858
N         49.58994       66.17194       80.68121
C         50.71096       65.94445       79.79114
C         50.47113       64.82578       78.80254
O         49.35700       64.33075       78.70654
H         49.76813       65.92699       81.66132
H         51.54618       65.60458       80.42236
H         50.99449       66.88411       79.26860
N         51.47429       64.34754       78.01127
C         52.86979       64.77497       78.09661
C         53.56747       64.04602       79.24493
O         53.55028       62.82237       79.23228
C         53.59031       64.42679       76.77172
C         55.04426       64.83896       76.77269
N         55.40068       66.13836       76.89967
O         55.91021       63.98537       76.65107
H         51.23264       63.60916       77.33009
H         52.91218       65.87755       78.19364
H         53.07891       64.93941       75.92844
H         53.52375       63.32989       76.59227
H         54.68821       66.87628       76.99317
H         56.39533       66.40900       76.90530
N         54.26061       64.67308       80.24191
C         54.39219       66.12035       80.37574
C         55.40682       66.53172       81.41752
O         56.05022       65.68005       82.01775
H         54.74658       64.06028       80.91544
H         53.42155       66.57244       80.63986
H         54.74589       66.55073       79.42028
N         55.65312       67.85929       81.62483
C         56.74783       68.32410       82.46699
C         56.30669       69.38090       83.48085
O         55.17725       69.84894       83.43626
C         57.83912       68.85763       81.51485
C         59.17520       69.08600       82.16665
C         59.74422       70.36744       82.19892
C         59.87664       68.00484       82.72862
C         60.99544       70.56567       82.78897
C         61.12689       68.20490       83.31598
C         61.69147       69.48763       83.34728
O         62.90065       69.69411       83.90538
H         55.12335       68.55378       81.07515
H         57.15849       67.46449       83.03836
H         57.45850       69.78070       81.02383
H         58.01274       68.10559       80.71293
H         59.22122       71.21129       81.76694
H         59.45946       67.00535       82.70572
H         61.42589       71.55826       82.80772
H         61.65614       67.36154       83.74153
H         63.41662       68.97266       84.29277
N         57.17534       69.76541       84.45893
C         56.87991       70.73315       85.52085
C         56.97946       72.17634       84.99903
O         57.41962       72.36618       83.87500
C         57.78078       70.38774       86.77448
C         59.33003       70.40533       86.57859
C         57.40520       71.15961       88.04524
C         59.95050       71.75777       86.23790
H         58.06171       69.25380       84.49587
H         55.82862       70.56475       85.84456
H         57.52689       69.32914       87.01094
H         59.64866       69.68631       85.80084
H         59.79801       70.04942       87.52271
H         56.31479       71.07953       88.21600
H         57.92014       70.71979       88.92560
H         57.70975       72.22032       88.00005
H         59.73361       72.50883       87.02291
H         61.05310       71.64393       86.17261
H         59.59980       72.11648       85.25303
N         56.60941       73.24596       85.77543
C         56.87245       74.63833       85.39874
C         55.77057       75.59482       85.85138
O         54.81940       75.18096       86.49495
C         58.19842       75.07005       86.05303
O         58.09433       74.99327       87.45032
H         56.24032       73.07249       86.71550
H         56.98577       74.72604       84.29689
H         58.46053       76.10568       85.74136
H         59.01681       74.40900       85.70661
H         58.76372       75.62263       87.82484
N         55.89733       76.92979       85.57265
C         55.02284       77.98878       86.06316
C         55.08945       78.07966       87.57950
O         54.06189       78.02359       88.24278
C         53.59620       77.84805       85.51424
H         56.69926       77.23702       85.00448
H         55.41588       78.95672       85.67674
H         53.10679       76.92049       85.87320
H         52.98176       78.71694       85.83611
H         53.62177       77.83702       84.40400
N         56.30234       78.23468       88.19295
C         56.49526       78.39959       89.63264
C         56.05737       77.19654       90.46214
O         56.09764       77.29361       91.68120
C         55.84480       79.70336       90.11371
H         57.14789       78.26256       87.60202
H         57.58474       78.51996       89.82706
H         54.74384       79.69031       89.99518
H         56.08354       79.87615       91.18553
H         56.26295       80.55599       89.53597
N         55.70778       76.00662       89.88917
C         55.39542       74.80870       90.66398
C         56.57256       74.47287       91.56197
O         56.38615       74.33889       92.76376
C         55.07061       73.63638       89.70422
C         54.70729       72.30702       90.39739
C         53.42109       72.32618       91.18157
O         52.64254       73.42381       91.23715
O         53.05852       71.31064       91.75322
H         55.71888       75.92180       88.86523
H         54.50175       75.00849       91.29053
H         55.96153       73.45870       89.06912
H         54.23307       73.92512       89.03199
H         55.54260       71.99560       91.06002
H         54.58483       71.53034       89.61399
N         57.82984       74.38690       91.04744
C         58.98884       74.14592       91.87722
H         59.91032       74.18368       91.25781
H         59.06323       74.93097       92.66108
H         58.91371       73.14747       92.35481
H         57.97706       74.54006       90.03968
Ca        48.58288       72.02901       82.45747
O         50.69224       74.10483       82.72031
H         50.48869       74.69585       81.95241
H         50.34038       74.59007       83.50845
O         47.31748       74.38729       84.33122
H         47.68886       75.27285       84.57193
H         46.49461       74.30478       84.87567
O         49.03169       72.00090       85.49983
H         49.05699       72.84062       86.02388
H         48.92190       71.28735       86.17717
O         51.12941       70.56444       82.00571
H         50.66013       69.72946       82.25717
H         51.55049       70.87575       82.84618
O         48.77425       72.83878       79.64431
H         49.75885       72.91806       79.71385
H         48.45894       73.76496       79.49354
O         45.65734       71.22891       83.94141
H         45.31768       71.20266       83.01167
H         45.50273       70.31364       84.28623
O         46.11388       73.60088       81.64412
H         45.99800       74.58400       81.65400
H         45.40531       73.27025       81.03721

Ca 1.0



