%chk=apoCaM-CA-Ng.loop2.water3.frame987.chk
%nprocshared=20
%mem=10GB
%nosave
#b3lyp/svp scf=(tight,noincore,xqc) Test 
#IOP(5/87=12) Density=Current Pop=(MK,readradii) iop(6/33=2) iop(6/42=6)

apoCaM-CA-Ng.loop2.water3.frame987 

   -2  1 
C         49.16745       97.97077       56.14474
C         48.38553       96.87277       56.80111
O         47.86216       96.02689       56.08880
H         50.03167       97.52923       55.60592
H         48.52198       98.50297       55.41320
H         49.54210       98.70517       56.88693
N         48.25176       96.81362       58.15949
C         47.46830       95.76416       58.80397
C         48.06999       94.37772       58.62047
O         47.38371       93.42210       58.95878
C         47.25614       96.03301       60.31068
C         46.50298       97.30961       60.56274
O         45.39690       97.47765       60.07333
O         47.02693       98.25785       61.36213
H         48.68627       97.54926       58.73796
H         46.46471       95.75629       58.32304
H         48.23307       96.05599       60.84261
H         46.64769       95.20777       60.74057
N         49.32646       94.16450       58.11991
C         49.82635       92.81145       57.89280
C         51.34893       92.75408       57.79719
O         51.92937       93.68529       57.25628
C         49.21122       92.27328       56.59250
H         49.93144       94.96746       57.89578
H         49.49933       92.19755       58.74457
H         49.54904       91.24632       56.37685
H         48.10444       92.25572       56.65956
H         49.50574       92.91185       55.73155
N         52.09304       91.66733       58.18503
C         51.59317       90.42596       58.78857
C         52.41039       90.00035       60.00155
O         53.42580       90.60857       60.30337
C         51.48304       89.32192       57.72209
C         52.63497       89.26999       56.75401
O         53.87914       88.93766       57.16010
O         52.41699       89.49350       55.57532
H         53.10296       91.70001       57.97300
H         50.58030       90.55035       59.20142
H         50.57220       89.52628       57.12790
H         51.31291       88.32791       58.18668
N         51.93328       89.00541       60.80919
C         52.52201       88.63705       62.08899
C         52.56245       87.13373       62.27663
O         51.76545       86.63824       63.06088
H         51.02671       88.57351       60.56938
H         51.83410       89.03634       62.86547
H         53.50964       89.10433       62.26998
N         53.41643       86.30516       61.61460
C         54.46938       86.74265       60.71213
C         55.59180       87.38972       61.51945
O         56.15875       86.72782       62.37948
C         55.00510       85.50932       59.94749
C         55.93824       85.81657       58.80938
N         56.53597       84.79611       58.15370
O         56.13772       86.96740       58.45463
H         53.30472       85.29020       61.77684
H         54.03029       87.43695       59.96385
H         54.14861       84.95815       59.50095
H         55.51327       84.82875       60.66470
H         56.37517       83.82175       58.44426
H         57.16852       84.96843       57.36342
N         55.97977       88.67238       61.28082
C         57.03573       89.34644       62.02323
C         58.35609       89.36049       61.28091
O         59.28346       89.98384       61.77617
H         55.52474       89.19471       60.52151
H         57.20428       88.87237       63.01491
H         56.70806       90.39098       62.21711
N         58.53334       88.68218       60.11092
C         59.78992       88.65791       59.36992
C         59.63531       89.27824       57.99823
O         58.53453       89.60101       57.57265
C         60.34288       87.19920       59.25421
C         61.04012       86.77272       60.53344
O         59.33609       86.25980       58.99261
H         57.74917       88.15107       59.72073
H         60.55256       89.29395       59.86565
H         61.11912       87.13207       58.45949
H         58.83153       86.59083       58.22090
H         61.43854       85.74293       60.40121
H         61.89390       87.45337       60.73457
H         60.33226       86.78639       61.38630
N         60.76193       89.47239       57.25431
C         60.78547       90.03808       55.91731
C         61.09538       88.86170       55.00753
O         62.13155       88.22869       55.16260
C         61.83281       91.19581       55.82979
C         61.71900       92.08320       54.56032
C         61.72223       92.14217       57.04427
C         61.76844       91.35229       53.22715
H         61.66513       89.16901       57.64860
H         59.78506       90.45806       55.67472
H         62.84813       90.74214       55.86833
H         62.57066       92.79967       54.57889
H         60.77628       92.67402       54.58583
H         61.90678       91.60293       57.99660
H         62.48859       92.94486       56.97979
H         60.71623       92.61182       57.08895
H         61.80814       92.10080       52.40674
H         62.66340       90.70003       53.16459
H         60.84294       90.76269       53.08853
N         60.14822       88.43477       54.13592
C         60.17510       87.16543       53.43179
C         59.71811       87.37049       52.00269
O         58.82877       86.68005       51.52386
C         59.32981       86.14362       54.23092
C         58.11181       86.75562       54.89909
O         57.07921       87.31754       54.24815
O         58.08739       86.79498       56.10884
H         59.28027       88.96917       54.06970
H         61.21300       86.76212       53.36893
H         59.98097       85.78749       55.06416
H         59.08191       85.24220       53.63128
N         60.34321       88.31823       51.25642
C         60.11528       88.55959       49.84176
C         59.66184       90.00002       49.59161
O         60.33688       90.90806       50.05782
C         61.46601       88.36101       49.11789
C         61.39300       88.81302       47.67960
C         61.76547       90.13120       47.35495
C         60.90043       87.96958       46.67441
C         61.63656       90.60150       46.05018
C         60.78894       88.44076       45.36105
C         61.15143       89.75641       45.05150
H         61.07144       88.88513       51.71502
H         59.39126       87.83340       49.41791
H         61.82595       87.31221       49.19576
H         62.22324       88.99005       49.63735
H         62.12762       90.80632       48.12117
H         60.59981       86.95617       46.90872
H         61.90595       91.62420       45.81955
H         60.41146       87.79032       44.58413
H         61.05260       90.12492       44.03964
N         58.63293       90.29810       48.73300
C         58.41310       91.63127       48.17159
C         57.87396       92.67323       49.12799
O         57.64128       93.78808       48.67919
C         57.45790       91.37313       46.99552
C         56.68431       90.15723       47.45477
C         57.78021       89.31511       48.09187
H         59.35867       92.04224       47.75404
H         56.84160       92.24007       46.67176
H         58.06736       91.04052       46.12487
H         55.98402       90.48046       48.25714
H         56.10854       89.63425       46.66040
H         57.31710       88.59550       48.80006
H         58.37377       88.77697       47.32168
N         57.64522       92.41495       50.44090
C         57.04702       93.40493       51.33026
C         57.95419       94.59531       51.65547
O         57.49990       95.48232       52.36555
C         56.51059       92.69218       52.57868
C         57.58625       92.20538       53.55307
C         56.94322       91.24881       54.50916
O         57.35347       90.10914       54.60326
O         55.85595       91.61554       55.20697
H         57.80825       91.46199       50.79382
H         56.14070       93.79734       50.81791
H         55.92045       91.82208       52.20683
H         55.80886       93.35374       53.13189
H         58.00987       93.07470       54.10186
H         58.41718       91.69103       53.02325
N         59.22484       94.71053       51.16581
C         60.05178       95.87063       51.43448
H         61.02633       95.77527       50.90809
H         59.54891       96.79109       51.06557
H         60.24367       95.96512       52.52387
H         59.62716       93.97612       50.56830
Ca        55.51040       88.12134       55.74827
O         53.84816       85.82072       56.42470
H         53.48572       85.04358       56.91473
H         53.68494       86.57296       57.04201
O         55.96958       90.77263       57.90645
H         55.25597       90.54441       58.54862
H         55.78469       91.71457       57.66946
O         54.23683       87.89724       53.32949
H         53.76057       88.43270       54.00557
H         54.38892       88.54091       52.59688

Ca 1.0



