%chk=apoCaM-CA-Ng.loop2.water4.frame785.chk
%nprocshared=20
%mem=10GB
%nosave
#b3lyp/svp scf=(tight,noincore,xqc) Test 
#IOP(5/87=12) Density=Current Pop=(MK,readradii) iop(6/33=2) iop(6/42=6)

apoCaM-CA-Ng.loop2.water4.frame785 

   -2  1 
C        109.18628       -4.07837        7.24423
C        109.52686       -5.30143        8.03925
O        110.68100       -5.47343        8.40973
H        108.41633       -3.48568        7.78011
H        110.08683       -3.44682        7.08967
H        108.79043       -4.38120        6.25143
N        108.56526       -6.22273        8.31667
C        108.84787       -7.45015        9.04624
C        109.18408       -7.11899       10.49201
O        108.32014       -6.59984       11.19084
C        107.63253       -8.40088        8.95475
C        107.90727       -9.75007        9.55489
O        107.16543      -10.19407       10.58677
O        108.78469      -10.46168        9.09140
H        107.61051       -6.05602        7.95780
H        109.70321       -7.95654        8.54422
H        107.37068       -8.55658        7.88432
H        106.75375       -7.93666        9.45404
N        110.41266       -7.39455       11.01839
C        110.74489       -7.08233       12.40657
C        110.89400       -5.57994       12.58752
O        111.23985       -4.91679       11.61784
C        112.04116       -7.77492       12.83233
H        111.11966       -7.85290       10.42135
H        109.92764       -7.49386       13.03576
H        112.22426       -7.61622       13.91648
H        111.95323       -8.86757       12.65392
H        112.90930       -7.38325       12.26094
N        110.65034       -4.92553       13.75746
C        110.23704       -5.52810       15.01950
C        108.79738       -5.18417       15.31466
O        108.41766       -4.02545       15.22566
C        111.17678       -5.11717       16.18182
C        111.37457       -3.64241       16.45830
O        110.80360       -2.77667       15.81670
O        112.22062       -3.27546       17.43918
H        110.74330       -3.90145       13.73261
H        110.30372       -6.63151       14.98342
H        112.17698       -5.54919       15.97358
H        110.79335       -5.58330       17.11780
N        107.93943       -6.15967       15.73078
C        106.57252       -5.86389       16.10482
C        105.68836       -5.65299       14.89746
O        106.12869       -5.90530       13.78411
H        108.28676       -7.12029       15.87270
H        106.58978       -4.98421       16.77866
H        106.14495       -6.72577       16.66226
N        104.39489       -5.24125       15.01253
C        103.76264       -4.79517       16.25178
C        103.22211       -3.38613       16.07889
O        103.22940       -2.84113       14.98322
C        102.64957       -5.78620       16.64635
C        103.23966       -7.02859       17.26420
N        103.68253       -6.99991       18.54567
O        103.29533       -8.06695       16.62373
H        103.82317       -5.20956       14.15237
H        104.48314       -4.72622       17.08879
H        102.04867       -6.02951       15.74299
H        101.95262       -5.36223       17.40011
H        103.59991       -6.14047       19.11050
H        104.07386       -7.84324       18.99060
N        102.74650       -2.72635       17.16552
C        102.18730       -1.39120       17.12223
C        103.17984       -0.29563       16.77033
O        102.88422        0.50169       15.89219
H        102.75089       -3.20835       18.07828
H        101.80852       -1.15108       18.14074
H        101.31284       -1.37130       16.43558
N        104.30177       -0.10716       17.52422
C        105.02624        1.16896       17.53379
C        105.84433        1.48482       16.29267
O        106.78046        0.76416       15.98031
C        105.93799        1.32391       18.77505
C        105.16817        1.14112       20.08406
O        107.01617        0.42579       18.73434
H        104.51213       -0.81050       18.24688
H        104.25716        1.96259       17.65343
H        106.31307        2.37669       18.74434
H        107.82412        0.91528       19.04195
H        104.26200        1.78252       20.08697
H        104.86165        0.08459       20.22731
H        105.81515        1.42762       20.93733
N        105.59263        2.63346       15.59791
C        106.46491        3.13711       14.54319
C        107.72546        3.74613       15.17759
O        107.61612        4.64060       16.00380
C        105.74543        4.19514       13.64136
C        106.68854        4.59504       12.46587
C        104.41706        3.63084       13.09066
C        106.10947        5.60538       11.47279
H        104.78555        3.20906       15.87733
H        106.71378        2.29473       13.86190
H        105.50576        5.09432       14.25111
H        106.96195        3.68536       11.89659
H        107.62408        5.03385       12.87122
H        103.73127        3.32583       13.90566
H        103.86832        4.40562       12.51787
H        104.60109        2.75329       12.43519
H        105.84147        6.55021       11.98814
H        106.87046        5.82407       10.69262
H        105.22132        5.19774       10.94809
N        108.95368        3.33405       14.76509
C        110.25018        3.84956       15.19143
C        110.93277        4.67555       14.08328
O        111.81555        5.45301       14.42153
C        111.16633        2.63724       15.51019
C        110.82047        1.91879       16.79580
O        111.07943        2.45203       17.85926
O        110.27727        0.68642       16.81218
H        108.97401        2.60455       14.06806
H        110.14057        4.51840       16.07449
H        112.22700        2.95331       15.60190
H        111.12656        1.94671       14.63741
N        110.67033        4.49609       12.75007
C        111.42706        5.14536       11.67426
C        111.36397        4.29725       10.38928
O        110.78236        4.72762        9.40789
C        110.96499        6.61450       11.46396
C        111.66631        7.27940       10.28616
C        110.91032        7.74608        9.19272
C        113.06792        7.41703       10.24762
C        111.53968        8.32274        8.08491
C        113.69317        7.99487        9.13439
C        112.92986        8.44442        8.05385
H        109.97649        3.79245       12.47608
H        112.50461        5.18260       11.94291
H        111.16598        7.20625       12.38320
H        109.86636        6.61866       11.29409
H        109.83184        7.65312        9.18994
H        113.67973        7.06945       11.06941
H        110.94867        8.66996        7.24665
H        114.77141        8.09026        9.10443
H        113.41457        8.88587        7.19147
N        112.00951        3.08793       10.31188
C        112.14184        2.31091        9.07474
C        110.86013        1.65597        8.58342
O        110.88180        1.11178        7.48139
C        113.23816        1.29080        9.41063
C        113.05821        1.09582       10.90263
C        112.78766        2.51354       11.38374
H        112.50920        2.96617        8.25478
H        113.23370        0.35990        8.80231
H        114.22503        1.78891        9.28174
H        112.12852        0.50430       11.04816
H        113.89805        0.59249       11.42776
H        112.25068        2.47156       12.35400
H        113.72528        3.10617       11.48775
N        109.70537        1.68585        9.29614
C        108.42781        1.21477        8.77541
C        108.03965        2.14031        7.64843
O        107.79486        1.69262        6.54037
C        107.24691        1.27172        9.78496
C        107.26768        0.31360       10.97668
C        108.13761        0.65024       12.11923
O        108.07049       -0.16482       13.18093
O        108.85058        1.62831       12.12672
H        109.74233        2.13189       10.20812
H        108.51759        0.15819        8.42676
H        106.35176        0.94527        9.20922
H        107.04462        2.30149       10.13727
H        107.52771       -0.70913       10.64210
H        106.24884        0.31195       11.41832
N        107.96799        3.47926        7.90894
C        107.58147        4.47645        6.94232
H        106.70386        5.03002        7.33801
H        108.42264        5.18751        6.80624
H        107.31546        4.03054        5.96369
H        108.20756        3.82014        8.85164
Ca       109.34551       -0.11625       14.98286
O        106.23464       -1.98526       14.71925
H        105.55367       -1.48610       15.23505
H        105.76617       -2.80037       14.41224
O        111.74501       -0.63089       13.63062
H        111.11143        0.00649       13.21573
H        112.08722       -1.15746       12.86787
O        108.17473       -2.41887       17.60926
H        107.45735       -1.82133       17.93044
H        108.07936       -3.23052       18.16708
O        109.06614       -2.47500       12.59302
H        109.48731       -2.10642       11.77646
H        108.44805       -3.17648       12.27170

Ca 1.0



