%chk=apoCaM-CA-Ng.loop4.water3.frame83.chk
%nprocshared=20
%mem=10GB
%nosave
#b3lyp/svp scf=(tight,noincore,xqc) Test 
#IOP(5/87=12) Density=Current Pop=(MK,readradii) iop(6/33=2) iop(6/42=6)

apoCaM-CA-Ng.loop4.water3.frame83 

   -3  1 
C         46.88989       71.94411       -0.11593
C         47.22499       73.15090       -0.93570
O         47.32392       74.23276       -0.37836
H         45.95154       71.48578       -0.48961
H         47.71762       71.20790       -0.19081
H         46.75720       72.22146        0.95216
N         47.45293       73.02454       -2.27489
C         47.84221       74.12158       -3.15502
C         49.11626       74.77204       -2.64852
O         49.13299       75.95695       -2.36980
C         46.65685       75.06787       -3.48979
C         45.98073       75.76104       -2.33857
O         46.64358       76.65688       -1.58653
O         44.80256       75.54151       -2.10558
H         47.40273       72.08109       -2.68937
H         48.10898       73.68511       -4.14468
H         45.89223       74.45016       -4.01236
H         47.00266       75.83993       -4.21168
N         50.23341       73.99670       -2.52872
C         51.57565       74.40659       -2.11515
C         52.19354       75.36190       -3.12961
O         53.06032       74.92539       -3.87488
C         51.65040       74.90803       -0.64310
C         53.11017       75.20568       -0.19679
C         50.98437       73.90980        0.32178
C         54.06910       74.00846       -0.26066
H         50.13246       72.99957       -2.77701
H         52.17472       73.47092       -2.16288
H         51.08184       75.85609       -0.55546
H         53.09618       75.57552        0.85063
H         53.53005       76.01742       -0.82800
H         51.03692       74.28991        1.36466
H         49.91319       73.78312        0.06929
H         51.46521       72.91165        0.27562
H         54.19011       73.63429       -1.29612
H         55.07386       74.32440        0.08653
H         53.72362       73.17990        0.39066
N         51.80674       76.66680       -3.23073
C         52.27704       77.54815       -4.28870
C         53.57175       78.25575       -3.90300
O         54.54144       78.05124       -4.62041
C         51.15219       78.49819       -4.76741
C         49.95085       77.78052       -5.33523
O         49.90094       76.56128       -5.38972
O         48.91095       78.50243       -5.79353
H         51.12114       77.04789       -2.57110
H         52.51308       76.93433       -5.18968
H         51.55705       79.15818       -5.56432
H         50.78207       79.13117       -3.94542
N         53.73731       79.08833       -2.83065
C         52.71374       79.42007       -1.84546
C         53.20858       80.38416       -0.77953
O         54.36920       80.76805       -0.82592
H         54.68064       79.49077       -2.72307
H         52.40318       78.48587       -1.34821
H         51.87694       79.91182       -2.35115
N         52.43473       80.84809        0.24828
C         51.03086       80.56894        0.56609
C         50.73709       79.06794        0.83732
O         50.24714       78.41932       -0.30353
C         50.05640       81.24047       -0.42533
C         48.61461       81.19625        0.02019
O         48.24884       80.59159        1.16867
O         47.76106       81.72975       -0.66921
H         52.90957       81.47807        0.91592
H         50.83767       81.08654        1.53274
H         50.12396       80.77426       -1.42486
H         50.34290       82.31001       -0.52032
N         51.88579       78.32554        1.38442
C         52.44062       78.85903        2.63991
C         53.93021       78.62971        2.67727
O         54.45945       77.92534        1.82720
H         51.62385       77.32315        1.52993
H         51.94205       78.41586        3.53000
H         52.30890       79.95291        2.70429
N         54.69214       79.27633        3.60433
C         56.14948       79.17398        3.61416
C         56.63503       77.80115        4.05741
O         57.81863       77.52876        3.91199
C         56.77631       80.30455        4.46183
C         56.49037       80.20215        5.97155
C         56.98394       81.43560        6.68533
N         57.94706       81.35967        7.63193
O         56.49843       82.52234        6.40723
H         54.21953       79.92543        4.25085
H         56.49157       79.34921        2.56861
H         56.37700       81.26650        4.06979
H         57.87916       80.31334        4.31395
H         56.98872       79.29356        6.37146
H         55.40238       80.11408        6.16862
H         58.37419       80.45889        7.88337
H         58.27178       82.21093        8.11421
N         55.78739       76.90358        4.64120
C         56.19212       75.57963        5.10088
C         56.13057       75.47185        6.61652
O         56.43883       74.40156        7.12289
C         55.31783       74.47446        4.44056
C         55.50101       74.46577        2.92162
C         53.82147       74.59420        4.79059
H         54.81127       77.17960        4.81102
H         57.25175       75.37835        4.82652
H         55.67232       73.48811        4.81509
H         54.92485       73.62431        2.48454
H         55.14666       75.41656        2.47320
H         56.57144       74.32284        2.66240
H         53.67023       74.56414        5.89009
H         53.38268       75.53216        4.39401
H         53.25815       73.74549        4.34806
N         55.77510       76.52804        7.40905
C         55.73838       76.44361        8.86352
C         54.36119       76.75812        9.43332
O         54.12308       76.36245       10.56685
C         56.78255       77.40672        9.46356
C         58.17844       77.12168        8.95955
N         58.78308       75.93718        9.20831
O         58.77331       77.97612        8.32118
H         55.56800       77.43810        6.98060
H         55.98949       75.41243        9.19455
H         56.78203       77.33123       10.57271
H         56.50445       78.44867        9.18842
H         58.30738       75.20283        9.75086
H         59.73629       75.75611        8.85904
N         53.44809       77.54374        8.77933
C         52.18915       77.96855        9.39419
C         51.00051       77.79536        8.45765
O         51.19446       77.63195        7.26238
C         52.30569       79.47191        9.72710
C         53.48129       79.76685       10.62879
C         54.57839       80.50187       10.14469
C         53.49249       79.31456       11.95800
C         55.66976       80.77263       10.97452
C         54.58189       79.59453       12.78932
C         55.67467       80.32517       12.29924
O         56.73138       80.60254       13.08941
H         53.68519       77.95078        7.86474
H         51.99724       77.39218       10.32525
H         51.37880       79.85212       10.20539
H         52.43401       80.01789        8.76477
H         54.59755       80.85585        9.12115
H         52.65604       78.75069       12.35112
H         56.51145       81.33326       10.58698
H         54.57453       79.24531       13.81404
H         56.77177       80.31868       14.01380
N         49.72738       77.90955        8.94966
C         48.50113       78.02159        8.15134
C         48.16539       76.85484        7.22611
O         47.13636       76.96124        6.57113
C         48.52486       79.34493        7.33659
C         48.48592       80.60576        8.22327
C         47.16524       80.82345        8.92835
O         46.22087       80.06476        8.76881
O         47.01194       81.90131        9.71971
H         49.61692       78.00896        9.97087
H         47.64441       78.07134        8.85528
H         47.65525       79.40932        6.64640
H         49.43764       79.36538        6.70504
H         48.65119       81.49241        7.57507
H         49.30624       80.56730        8.96959
N         48.92336       75.72761        7.09824
C         48.59950       74.68106        6.12535
C         48.31838       73.34019        6.78241
O         48.02635       72.39750        6.05769
C         49.76019       74.54260        5.12164
C         50.09112       75.85478        4.40336
C         49.00362       76.34854        3.50166
O         48.54627       77.47056        3.65531
O         48.67936       75.64510        2.40321
H         49.77071       75.60779        7.66936
H         47.68508       74.93982        5.54763
H         49.52567       73.76570        4.36051
H         50.66947       74.22162        5.67487
H         50.98851       75.69899        3.76916
H         50.34368       76.63913        5.14281
N         48.36823       73.16075        8.13266
C         48.09686       71.87406        8.73577
H         47.06488       71.54766        8.48511
H         48.82373       71.12091        8.36297
H         48.19097       71.94455        9.83971
H         48.60047       73.94234        8.76092
Ca        48.74936       77.00594        0.63522
O         45.44736       79.19173       -0.21331
H         45.50966       80.16846       -0.36140
H         44.48257       79.02541       -0.06622
O         45.43241       76.14208        1.29256
H         45.54460       75.17686        1.48261
H         45.89605       76.59746        2.03946
O         47.88329       79.16642       -2.34292
H         48.33013       78.59015       -3.01119
H         47.36247       79.81455       -2.88000

Ca 1.0



