%chk=apoCaM-CA-Ng.loop3.water3.frame748.chk
%nprocshared=20
%mem=10GB
%nosave
#b3lyp/svp scf=(tight,noincore,xqc) Test 
#IOP(5/87=12) Density=Current Pop=(MK,readradii) iop(6/33=2) iop(6/42=6)

apoCaM-CA-Ng.loop3.water3.frame748 

   0  1 
C          7.29744       12.83709      -10.85104
C          8.28764       12.36704      -11.87456
O          8.10290       12.65718      -13.04765
H          6.29441       12.42252      -11.08028
H          7.59082       12.52127       -9.82787
H          7.24828       13.94657      -10.87353
N          9.38362       11.64946      -11.50006
C         10.41284       11.23905      -12.44455
C          9.83607       10.27903      -13.48410
O          9.28839        9.24877      -13.11718
C         11.60107       10.59280      -11.69908
C         12.81964       10.44106      -12.57216
O         13.81005        9.87810      -12.13564
O         12.84204       10.95109      -13.81994
H          9.51119       11.43115      -10.49969
H         10.79988       12.16399      -12.92663
H         11.28710        9.60414      -11.29878
H         11.90384       11.23427      -10.84384
N          9.93303       10.57360      -14.80891
C          9.38674        9.75177      -15.89031
C          9.96075        8.33883      -15.88611
O          9.18174        7.39591      -15.90679
C          9.66410       10.43276      -17.25439
C          8.86042       11.74361      -17.41101
C          9.25725       12.57615      -18.64136
C          9.07023       11.85271      -19.98224
N          9.42147       12.73642      -21.09514
H         10.42972       11.44019      -15.06078
H          8.28096        9.67032      -15.78064
H          9.36185        9.74884      -18.07704
H         10.75500       10.63088      -17.34455
H          9.02377       12.39904      -16.53166
H          7.77495       11.50279      -17.45009
H         10.32007       12.88607      -18.53971
H          8.62886       13.49450      -18.64317
H          8.01166       11.52871      -20.09058
H          9.72335       10.95461      -20.01950
H         10.41396       13.05501      -21.00420
H          9.31575       12.21618      -21.99573
H          8.78700       13.56810      -21.10876
N         11.30611        8.11755      -15.86449
C         11.91878        6.78473      -15.95688
C         12.58494        6.34499      -14.64823
O         13.14743        5.25917      -14.62281
C         12.88480        6.75471      -17.17756
C         14.03009        7.72705      -17.06464
O         14.27364        8.28680      -15.87538
O         14.72196        8.00148      -18.03064
H         11.91957        8.94086      -15.78601
H         11.13771        6.01872      -16.15864
H         12.28015        7.04031      -18.06542
H         13.28877        5.73429      -17.35162
N         12.49909        7.08956      -13.50441
C         12.99514        6.63329      -12.21028
C         14.50586        6.62694      -12.04119
O         14.94319        6.22410      -10.97181
H         11.96601        7.96893      -13.51304
H         12.58900        5.61733      -12.00965
H         12.59695        7.30728      -11.42121
N         15.36624        7.06280      -13.00611
C         16.82103        7.06767      -12.85557
C         17.40352        8.46548      -13.04147
O         16.68859        9.38180      -13.42405
C         17.44147        6.14117      -13.92472
C         16.94500        4.72212      -13.81870
N         16.29023        4.14004      -14.85159
O         17.14762        4.08683      -12.79489
H         14.98523        7.39392      -13.89283
H         17.10949        6.70753      -11.84387
H         18.54726        6.12389      -13.82461
H         17.20009        6.54828      -14.93285
H         16.11283        4.65556      -15.72645
H         15.96083        3.16607      -14.77984
N         18.73550        8.67521      -12.82683
C         19.44309        9.89705      -13.18144
C         18.93143       11.14362      -12.49570
O         18.98739       11.23385      -11.27789
H         19.30432        7.89545      -12.46224
H         19.37691       10.02001      -14.28235
H         20.51990        9.78107      -12.93210
N         18.42840       12.15993      -13.25386
C         17.93462       13.42934      -12.73372
C         16.41818       13.47771      -12.89574
O         15.82569       12.47084      -13.25454
C         18.57738       14.60521      -13.51679
C         20.08334       14.69850      -13.48936
C         20.79581       14.70135      -14.70069
C         20.78601       14.85741      -12.28189
C         22.18156       14.87013      -14.70908
C         22.17750       15.02206      -12.29278
C         22.87799       15.03570      -13.50492
O         24.21412       15.21867      -13.50297
H         18.35945       12.01877      -14.27244
H         18.16335       13.54285      -11.65108
H         18.22449       15.57153      -13.10684
H         18.22632       14.54855      -14.57032
H         20.27648       14.59631      -15.64499
H         20.25959       14.87348      -11.33598
H         22.70969       14.88527      -15.65423
H         22.71143       15.15508      -11.35994
H         24.72861       15.25601      -14.32256
N         15.73046       14.63025      -12.63615
C         14.28536       14.82939      -12.73468
C         13.74189       14.55940      -14.13963
O         13.93992       13.46533      -14.64523
C         13.47733       13.99363      -11.68959
C         12.12135       14.68435      -11.35806
C         14.24591       13.66313      -10.39782
C         12.24825       15.97273      -10.51880
H         16.26101       15.45473      -12.32414
H         14.12651       15.89761      -12.49659
H         13.25781       13.01066      -12.14618
H         11.48960       13.97909      -10.77726
H         11.58079       14.91776      -12.30015
H         15.12073       13.01887      -10.61890
H         14.60667       14.57613       -9.88551
H         13.59196       13.08129       -9.71265
H         11.24196       16.39922      -10.33259
H         12.70289       15.75810       -9.52928
H         12.85028       16.75801      -11.01632
N         12.95370       15.46488      -14.78974
C         12.29315       15.14419      -16.05848
C         12.56648       16.14730      -17.16806
O         12.14983       15.88102      -18.28837
C         10.78328       15.03757      -15.81122
O         10.54183       14.06190      -14.83532
H         12.73094       16.35603      -14.32178
H         12.63891       14.15735      -16.43911
H         10.25647       14.75115      -16.74693
H         10.40804       16.02819      -15.46389
H          9.63736       14.24338      -14.47258
N         13.20984       17.33086      -16.95199
C         13.41326       18.30476      -18.02223
C         14.48166       17.82759      -19.00306
O         15.24497       16.94311      -18.63941
C         13.84717       19.64191      -17.40933
H         13.50654       17.57864      -15.99811
H         12.43777       18.45959      -18.52945
H         13.07080       19.99482      -16.69734
H         14.80598       19.52251      -16.86057
H         13.98122       20.42160      -18.17771
N         14.65804       18.36380      -20.25053
C         13.71331       19.25233      -20.92282
C         14.38441       19.99342      -22.08116
O         15.00490       19.33313      -22.90364
C         12.56552       18.41424      -21.50045
H         15.43503       17.98268      -20.81380
H         13.27072       19.95994      -20.20594
H         11.83293       19.07635      -22.01077
H         12.95119       17.67555      -22.23615
H         12.03222       17.85992      -20.70275
N         14.26589       21.34257      -22.28915
C         13.47436       22.23669      -21.45181
C         14.12853       22.49992      -20.10130
O         13.46170       23.05649      -19.23968
C         13.10096       23.58443      -22.14194
C         14.24078       24.59789      -22.40606
C         15.05265       24.40047      -23.66124
O         16.06737       25.24691      -23.91893
O         14.75863       23.55815      -24.49297
H         14.70019       21.70985      -23.13960
H         12.49517       21.73526      -21.28612
H         12.40917       24.08798      -21.42993
H         12.51476       23.41405      -23.07108
H         14.90400       24.65061      -21.51786
H         13.77707       25.60079      -22.52930
N         15.42790       22.16258      -19.85002
C         16.08323       22.41054      -18.58093
H         16.93967       23.09928      -18.73723
H         15.40208       22.86413      -17.83044
H         16.46260       21.45143      -18.17137
H         16.00128       21.72894      -20.58697
Ca        14.49248       10.39542      -15.22620
O         16.50207       12.80327      -16.30228
H         16.31799       13.72260      -16.61950
H         17.48095       12.69789      -16.40419
O         17.49838        9.82683      -16.33944
H         16.69911        9.43151      -16.76761
H         18.17082        9.10076      -16.35455
O         14.32095       11.18681      -18.01126
H         14.25764       12.12176      -18.32965
H         13.81446       10.65799      -18.67722

Ca 1.0



