%chk=apoCaM-CA-Ng.loop3.water6.frame56.chk
%nprocshared=20
%mem=10GB
%nosave
#b3lyp/svp scf=(tight,noincore,xqc) Test 
#IOP(5/87=12) Density=Current Pop=(MK,readradii) iop(6/33=2) iop(6/42=6)

apoCaM-CA-Ng.loop3.water6.frame56 

   0  1 
C         48.25643       37.84880       64.35029
C         47.52870       36.69270       63.72755
O         47.72402       35.57194       64.16891
H         49.35127       37.69778       64.23864
H         47.98648       38.81039       63.86418
H         48.00448       37.91353       65.42887
N         46.67559       36.89649       62.68386
C         45.95891       35.84601       61.96169
C         46.94776       34.91322       61.27016
O         46.83333       33.69897       61.37486
C         44.97219       35.08284       62.88259
C         43.97671       35.96025       63.59845
O         43.96397       37.17151       63.44375
O         43.08809       35.39344       64.43624
H         46.53540       37.86336       62.35123
H         45.36899       36.34298       61.15854
H         45.53934       34.51942       63.65227
H         44.40508       34.34771       62.27199
N         47.98085       35.44791       60.55993
C         49.02000       34.67581       59.87103
C         49.88583       33.79793       60.78226
O         50.80750       33.18822       60.25562
C         49.96280       35.65498       59.10640
C         50.81284       36.55205       60.04534
C         51.60317       37.64310       59.29907
C         52.69817       37.14476       58.33742
N         53.79655       36.47781       59.03943
H         48.01175       36.47639       60.49205
H         48.52308       34.02571       59.11753
H         49.33682       36.29417       58.44597
H         50.64625       35.07096       58.45338
H         51.50184       35.93518       60.66010
H         50.13960       37.08290       60.74854
H         52.08139       38.31021       60.04964
H         50.87763       38.25597       58.72229
H         53.11164       38.03386       57.81082
H         52.27104       36.47154       57.56464
H         53.46611       35.60265       59.50313
H         54.53815       36.22699       58.34577
H         54.21403       37.12368       59.74904
N         49.70918       33.71533       62.13602
C         50.69239       33.11653       63.02902
C         50.18819       31.84661       63.71164
O         49.00833       31.52948       63.66066
C         51.08197       34.21534       64.04241
C         52.17262       33.84101       64.99107
O         53.28799       33.57204       64.57704
O         51.92788       33.83669       66.31287
H         48.91463       34.17481       62.58419
H         51.59076       32.82217       62.44408
H         50.17794       34.48972       64.63034
H         51.41208       35.12031       63.48630
N         51.10392       31.02480       64.29912
C         50.83357       29.73953       64.92192
C         50.17273       29.83992       66.27373
O         49.30480       29.03094       66.56983
H         52.09671       31.29193       64.23973
H         51.81944       29.27191       65.13187
H         50.29653       29.05326       64.23250
N         50.59856       30.76730       67.17873
C         50.15596       30.82165       68.57416
C         48.64843       31.02797       68.72957
O         48.17920       30.95007       69.85776
C         50.90669       31.93958       69.35824
C         52.43349       31.74580       69.51361
N         52.75699       30.56935       70.31028
O         53.07803       31.65798       68.28134
H         51.30194       31.43826       66.85272
H         50.39787       29.84327       69.04587
H         50.49810       32.00335       70.39096
H         50.71250       32.91880       68.86967
H         52.37583       30.70456       71.27342
H         53.79823       30.51990       70.39905
N         47.81757       31.27118       67.67139
C         46.37517       31.39204       67.81045
C         45.92375       32.65528       68.50843
O         44.72040       32.81082       68.67205
H         48.19140       31.33830       66.71720
H         45.98457       30.49663       68.34252
H         45.91871       31.41146       66.79807
N         46.79947       33.60639       68.94309
C         46.35733       34.83499       69.59751
C         47.51434       35.49214       70.34948
O         48.61391       34.94817       70.34551
C         45.71026       35.76922       68.54186
C         44.80866       36.81273       69.15126
C         43.64721       36.41263       69.83670
C         45.09867       38.18073       69.03488
C         42.79571       37.36318       70.40266
C         44.25026       39.13148       69.61330
C         43.09464       38.72438       70.29814
O         42.26524       39.62861       70.85660
H         47.80551       33.44348       68.81282
H         45.61204       34.54789       70.37133
H         45.05990       35.18830       67.85520
H         46.51866       36.21457       67.92125
H         43.39622       35.36260       69.92677
H         45.98625       38.50929       68.50972
H         41.90265       37.03968       70.92326
H         44.49132       40.18316       69.52824
H         42.43456       40.58012       70.81086
N         47.34930       36.63429       71.07485
C         48.40107       37.11583       71.96071
C         48.49808       36.07499       73.06002
O         49.53506       35.43834       73.18055
C         48.14826       38.58502       72.41526
C         48.14738       39.48926       71.14362
C         49.24039       39.03458       73.40369
C         47.94984       40.98370       71.39287
H         46.43741       37.10840       71.09166
H         49.36812       37.14089       71.40537
H         47.16414       38.66236       72.92819
H         47.32848       39.16633       70.47129
H         49.10566       39.36430       70.59188
H         49.05441       40.06990       73.75623
H         49.24146       38.38768       74.30516
H         50.24367       38.99214       72.92774
H         46.99790       41.16996       71.93013
H         48.79969       41.41079       71.96302
H         47.91582       41.50921       70.41332
N         47.39654       35.75938       73.80194
C         47.31141       34.54923       74.61273
C         47.33572       34.83049       76.09464
O         47.28662       33.86988       76.85202
C         46.05122       33.75968       74.21934
O         46.08791       33.45801       72.85121
H         46.54661       36.33726       73.70862
H         48.18878       33.89259       74.41959
H         45.15146       34.37511       74.45216
H         46.00473       32.80913       74.79657
H         45.17071       33.16927       72.60421
N         47.50163       36.09192       76.59428
C         47.71693       36.35825       78.00987
C         48.93489       35.56872       78.46007
O         48.84140       34.73106       79.34716
C         46.45224       36.06024       78.82908
H         47.56864       36.89452       75.95184
H         47.93487       37.44183       78.13903
H         46.62288       36.33068       79.89284
H         45.60729       36.67133       78.44581
H         46.16585       34.99026       78.77986
N         50.12260       35.77807       77.82753
C         51.32080       34.98501       78.07602
C         52.52425       35.67088       77.45675
O         52.47302       36.03467       76.29196
C         51.16428       33.56926       77.50761
H         50.16070       36.53011       77.12096
H         51.48401       34.90306       79.17290
H         50.30185       33.04901       77.97375
H         51.01161       33.59763       76.40766
H         52.07847       32.97550       77.72710
N         53.61737       35.93071       78.22845
C         54.78275       36.72476       77.84964
C         54.37198       38.14940       77.51185
O         54.83023       38.70735       76.52419
C         55.72727       36.06126       76.80152
C         55.18387       35.89272       75.36858
C         56.28048       35.50071       74.42014
O         56.56705       36.22785       73.48140
O         56.94991       34.34618       74.59489
H         53.59733       35.60537       79.20761
H         55.39892       36.80813       78.77395
H         56.06304       35.06999       77.17855
H         56.62581       36.71543       76.74378
H         54.74854       36.84620       75.00611
H         54.40847       35.10419       75.33316
N         53.49760       38.81145       78.31736
C         53.07908       40.16678       78.03857
H         52.33246       40.49530       78.79164
H         53.95618       40.84650       78.08022
H         52.61490       40.22063       77.03029
H         53.10074       38.33647       79.14250
Ca        54.27499       33.56051       67.94642
O         55.61921       35.07258       69.85424
H         55.58797       35.83510       70.48306
H         56.55020       34.73898       69.89907
O         54.10407       30.59111       65.94846
H         53.86742       29.86422       66.57805
H         54.78766       30.19236       65.35575
O         52.64229       36.14993       67.88890
H         52.43694       35.54899       68.64902
H         53.13395       36.90656       68.29498
O         56.67763       31.78710       67.83354
H         56.85925       31.36513       68.71042
H         57.55714       32.12749       67.53226
O         56.91179       35.11093       66.79890
H         56.45871       35.98650       66.89104
H         57.37629       35.16258       65.92610
O         56.09975       32.70620       64.72961
H         56.81428       32.03940       64.88663
H         56.53879       33.42520       64.20981

Ca 1.0



