%chk=apoCaM-CA-Ng.loop3.water2.frame554.chk
%nprocshared=20
%mem=10GB
%nosave
#b3lyp/svp scf=(tight,noincore,xqc) Test 
#IOP(5/87=12) Density=Current Pop=(MK,readradii) iop(6/33=2) iop(6/42=6)

apoCaM-CA-Ng.loop3.water2.frame554 

   0  1 
C         52.00532       16.70570       76.62649
C         51.16656       15.48288       76.42016
O         50.28977       15.50319       75.56939
H         53.06760       16.46137       76.41729
H         51.68529       17.51911       75.93986
H         51.90541       17.05920       77.67337
N         51.36751       14.37662       77.18918
C         50.61394       13.14367       77.01451
C         49.67669       12.98220       78.18452
O         50.14501       12.84073       79.30687
C         51.59914       11.96016       76.90327
C         50.96869       10.64600       76.54470
O         51.73638        9.54178       76.47993
O         49.78379       10.57002       76.26952
H         52.07274       14.41890       77.94183
H         50.01001       13.19716       76.08420
H         52.14737       11.84977       77.86438
H         52.33849       12.18231       76.11721
N         48.32495       13.05962       78.00363
C         47.40398       13.00084       79.13144
C         47.24510       11.57454       79.65918
O         46.67211       11.40027       80.72478
C         46.04629       13.62598       78.74830
C         45.25681       14.06737       79.98988
C         43.94135       14.75183       79.61475
C         43.28478       15.35250       80.86531
N         42.01200       15.99015       80.53752
H         47.95779       13.25806       77.05978
H         47.84566       13.65078       79.92075
H         45.46759       12.93193       78.09917
H         46.24514       14.55485       78.16780
H         45.88863       14.79618       80.54610
H         45.03407       13.21048       80.65657
H         43.26523       14.00739       79.14010
H         44.13624       15.57305       78.89049
H         43.97030       16.11287       81.30473
H         43.11367       14.55704       81.62399
H         41.34096       15.27656       80.17173
H         41.61416       16.41897       81.40422
H         42.15707       16.74098       79.82395
N         47.74167       10.50581       78.96798
C         47.70177        9.12762       79.44184
C         49.10200        8.62623       79.79217
O         49.20551        7.54220       80.34864
C         46.96557        8.23206       78.41660
C         47.54231        8.29314       77.02376
O         48.80144        7.89218       76.77871
O         46.86126        8.71279       76.10110
H         48.19806       10.66799       78.06489
H         47.13170        9.07133       80.39450
H         45.90910        8.57695       78.36498
H         46.95892        7.17725       78.76531
N         50.21632        9.38607       79.56272
C         51.55168        9.06466       80.03757
C         52.18488        7.80475       79.49069
O         53.30192        7.53385       79.91157
H         50.12645       10.29604       79.10178
H         51.51454        8.98269       81.14562
H         52.22795        9.91141       79.78649
N         51.56203        6.96022       78.61609
C         52.13422        5.67315       78.23671
C         52.16252        5.48064       76.72515
O         51.55358        6.25236       75.99734
C         51.28754        4.58616       78.93443
C         51.84164        3.19317       78.81495
N         53.05594        2.88867       79.32996
O         51.18038        2.32568       78.26497
H         50.61736        7.17722       78.27991
H         53.18041        5.60650       78.60426
H         50.25177        4.62491       78.52798
H         51.23139        4.82039       80.02062
H         53.62129        3.60496       79.80882
H         53.43056        1.93189       79.25532
N         52.87805        4.45188       76.18870
C         52.92657        4.12055       74.77387
C         53.42696        5.26345       73.92696
O         54.48107        5.80803       74.22526
H         53.43094        3.85395       76.82013
H         51.92252        3.79087       74.43178
H         53.62456        3.26476       74.64319
N         52.73458        5.65071       72.81463
C         53.17789        6.74629       71.95906
C         53.02385        8.09019       72.66022
O         52.50995        8.14956       73.76703
C         52.46886        6.72925       70.58218
C         53.03845        5.65810       69.67562
C         52.69454        4.30232       69.81337
C         53.95205        6.03000       68.67071
C         53.25300        3.34274       68.95837
C         54.51642        5.07079       67.82953
C         54.16749        3.72226       67.96857
O         54.70486        2.78674       67.15962
H         51.88580        5.12713       72.55502
H         54.26675        6.62445       71.75548
H         52.67327        7.69877       70.08518
H         51.36489        6.65673       70.65692
H         51.98945        3.98348       70.56779
H         54.24449        7.06567       68.54680
H         52.97680        2.30144       69.06584
H         55.22647        5.37907       67.07203
H         55.34497        3.01201       66.46869
N         53.55440        9.20575       72.07516
C         53.69364       10.52031       72.69540
C         52.36651       11.22689       72.96644
O         51.54812       10.71212       73.71146
C         54.53252       10.44024       74.01594
C         54.89203       11.84418       74.58326
C         55.80442        9.58546       73.85621
C         55.85650       12.67432       73.73055
H         54.00300        9.09989       71.15291
H         54.27668       11.13580       71.97935
H         53.91339        9.93613       74.78913
H         55.35306       11.71299       75.58655
H         53.97309       12.44372       74.71636
H         56.35856        9.54651       74.81845
H         55.55032        8.53999       73.58736
H         56.46767        9.98910       73.06523
H         56.83515       12.16434       73.62392
H         55.43579       12.88634       72.72806
H         56.03812       13.64686       74.23423
N         52.17082       12.49871       72.50894
C         51.14005       13.38167       73.05782
C         49.69912       13.01367       72.73180
O         48.81621       13.55882       73.38100
C         51.39916       14.83828       72.62950
O         52.66626       15.25926       73.06771
H         52.89094       12.90915       71.89569
H         51.25117       13.34218       74.16033
H         50.64422       15.52065       73.07100
H         51.30000       14.93574       71.52286
H         53.26985       15.25717       72.27956
N         49.36348       12.17619       71.71316
C         47.96899       11.89874       71.36395
C         47.31404       11.01988       72.42300
O         47.84593        9.95007       72.67685
C         47.90352       11.18902       70.00817
H         50.11661       11.78265       71.12915
H         47.43331       12.86279       71.23290
H         48.37302       11.82805       69.22975
H         48.43702       10.21713       70.03877
H         46.84622       11.01023       69.72017
N         46.17108       11.34302       73.09899
C         45.39242       12.56632       72.93095
C         44.75268       12.64533       71.54881
O         44.43644       11.59315       71.01041
C         44.24644       12.57792       73.95704
H         45.84426       10.65929       73.80178
H         46.06463       13.41492       73.14678
H         43.56702       11.71158       73.78782
H         44.64817       12.51105       74.98955
H         43.64651       13.50443       73.87752
N         44.39900       13.81682       70.93263
C         44.70522       15.17197       71.38761
C         45.44695       15.92093       70.29214
O         46.55343       16.38060       70.54136
C         43.45862       15.93878       71.91197
C         42.26791       16.19258       70.97299
C         41.56657       14.92944       70.56754
O         41.05194       14.11236       71.50708
O         41.44040       14.64688       69.38719
H         43.88264       13.72835       70.04523
H         45.37429       15.15388       72.26535
H         43.81450       16.93330       72.26269
H         43.07075       15.41125       72.80726
H         42.58335       16.78516       70.09184
H         41.52892       16.81250       71.52554
N         44.91632       16.06725       69.04490
C         45.60642       16.77714       67.99050
H         46.58397       16.29321       67.78222
H         44.99667       16.75939       67.06163
H         45.76828       17.83482       68.28796
H         44.00129       15.65439       68.81955
Ca        49.62925        8.09896       74.68419
O         48.34410        5.68364       73.59861
H         47.70962        6.35186       73.23537
H         49.12339        5.72401       72.98869
O         50.00919        8.52797       71.73061
H         49.27318        7.92260       71.46100
H         50.32156        8.93579       70.88480

Ca 1.0



