%chk=apoCaM-CA-Ng.loop1.water4.frame490.chk
%nprocshared=20
%mem=10GB
%nosave
#b3lyp/svp scf=(tight,noincore,xqc) Test 
#IOP(5/87=12) Density=Current Pop=(MK,readradii) iop(6/33=2) iop(6/42=6)

apoCaM-CA-Ng.loop1.water4.frame490 

   0  1 
C         61.61028       41.02522       66.67497
C         62.49267       42.09703       66.10187
O         62.00317       43.17948       65.81316
H         60.80423       40.77885       65.95403
H         62.18433       40.09861       66.89139
H         61.15887       41.38316       67.62401
N         63.82286       41.86905       65.92852
C         64.74724       42.87878       65.42372
C         64.58527       43.14359       63.92549
O         65.35383       43.93807       63.42123
C         66.21591       42.43986       65.67547
C         66.55770       42.29193       67.13640
O         66.00382       41.45305       67.82813
O         67.51030       43.07252       67.68257
H         64.19790       40.95320       66.21813
H         64.59479       43.82906       65.98435
H         66.89703       43.21769       65.26856
H         66.42914       41.48578       65.14530
N         63.67752       42.51420       63.12540
C         63.71788       42.62997       61.66480
C         62.46362       43.24707       61.07724
O         61.38374       42.83532       61.47734
C         63.91778       41.22868       61.06456
C         65.32469       40.69523       61.36112
C         65.51689       39.30649       60.74167
C         66.93442       38.74840       60.94702
N         67.94407       39.50021       60.19679
H         62.99117       41.86469       63.53336
H         64.57340       43.23531       61.34590
H         63.81049       41.28140       59.96104
H         63.13550       40.53648       61.44723
H         65.49480       40.63665       62.45826
H         66.05259       41.40972       60.92552
H         65.29544       39.33511       59.65207
H         64.79324       38.61521       61.22590
H         66.94230       37.69735       60.58429
H         67.18820       38.74065       62.03016
H         68.01832       40.48175       60.53933
H         68.87445       39.04182       60.32645
H         67.70941       39.49978       59.17736
N         62.47799       44.15158       60.03775
C         63.64618       44.73111       59.34909
C         64.60663       43.66616       58.82306
O         65.74229       43.60614       59.27395
C         64.34207       45.81792       60.19795
C         63.43348       46.97633       60.47506
O         62.16201       46.97018       60.03435
O         63.82931       47.90596       61.15977
H         61.55789       44.42929       59.66054
H         63.29126       45.29396       58.45772
H         65.21390       46.21634       59.63874
H         64.68990       45.41231       61.16626
N         64.25922       42.80275       57.82928
C         63.00176       42.91224       57.11056
C         62.87968       41.93977       55.94961
O         63.70039       41.04282       55.82159
H         64.96152       42.10722       57.53601
H         62.98133       43.93300       56.67351
H         62.13879       42.77850       57.79680
N         61.91252       42.08420       54.99450
C         60.94932       43.18276       54.98255
C         61.42801       44.29625       54.07354
O         62.34489       44.09548       53.28776
C         59.52350       42.71710       54.61736
C         59.39274       42.20923       53.20108
O         58.66935       42.79337       52.41008
O         60.04140       41.09944       52.80110
H         61.96136       41.45544       54.18130
H         60.87708       43.61929       55.99895
H         58.83753       43.58465       54.74094
H         59.19223       41.92571       55.32246
N         60.87983       45.53635       54.19270
C         61.29530       46.68564       53.41059
C         62.77667       46.94831       53.53028
O         63.43195       47.04570       52.50183
H         60.14627       45.68765       54.90209
H         60.74436       47.57948       53.77426
H         61.02824       46.52912       52.34220
N         63.38130       47.04457       54.75024
C         64.80784       47.30849       54.89989
C         65.50501       46.07012       55.43382
O         65.23265       45.65078       56.54867
C         65.04391       48.52651       55.81911
C         64.37928       49.78959       55.26250
O         66.42435       48.75279       55.93886
H         62.81622       46.90027       55.60159
H         65.25704       47.55239       53.91210
H         64.60658       48.29764       56.82070
H         66.56859       49.21627       56.80508
H         64.56899       50.64487       55.94505
H         64.79260       50.03474       54.26068
H         63.28095       49.65172       55.17780
N         66.42416       45.42800       54.65655
C         67.15296       44.22542       55.06094
C         68.15971       44.45200       56.19459
O         68.78794       43.47821       56.58786
C         67.83938       43.53571       53.82704
C         68.78574       44.41863       52.96140
C         66.76322       42.93245       52.90585
C         69.92376       45.08874       53.72063
H         66.56706       45.79197       53.70603
H         66.41891       43.48673       55.45664
H         68.43102       42.67340       54.20830
H         68.22100       45.20822       52.42398
H         69.24208       43.76675       52.18409
H         67.23700       42.36702       52.07478
H         66.12268       42.22198       53.47153
H         66.11651       43.72397       52.47176
H         70.57788       45.62567       53.00145
H         69.52240       45.84478       54.42126
H         70.53059       44.33566       54.26510
N         68.35914       45.66758       56.78868
C         69.31532       45.88152       57.87382
C         68.55609       46.08147       59.17539
O         67.68674       46.93766       59.24932
C         70.31185       47.02238       57.54904
C         69.66810       48.39751       57.33083
O         71.04202       46.66733       56.40306
H         67.79435       46.47194       56.49554
H         69.95249       44.97912       58.00371
H         71.00767       47.09450       58.41828
H         71.88169       47.19809       56.41454
H         68.99588       48.38596       56.45097
H         69.10796       48.72607       58.22863
H         70.46250       49.14884       57.13736
N         68.81180       45.25772       60.23295
C         68.02438       45.22481       61.46515
C         67.95952       46.55465       62.22174
O         68.62356       47.51673       61.86440
C         68.50697       44.06012       62.38175
C         69.95303       44.21198       62.87213
O         68.37878       42.84775       61.68413
H         69.55899       44.55767       60.11720
H         66.98173       44.99165       61.17108
H         67.85635       44.02816       63.27841
H         68.24907       42.13195       62.36072
H         70.67548       44.20948       62.03173
H         70.07881       45.15007       63.44331
H         70.20477       43.36232       63.54263
N         67.12017       46.64619       63.29484
C         66.88625       47.81228       64.13064
C         65.39439       48.15710       64.11915
O         65.05145       49.25793       63.71314
C         67.34448       47.48166       65.57170
C         68.87199       47.34985       65.67040
C         69.30367       46.75265       67.01661
C         70.83440       46.73212       67.14165
N         71.25489       46.04628       68.36338
H         66.59812       45.81351       63.56176
H         67.45916       48.69241       63.76145
H         66.86775       46.52697       65.88732
H         67.02335       48.27733       66.27910
H         69.32173       48.35624       65.52309
H         69.24981       46.67770       64.87684
H         68.91363       45.71186       67.07707
H         68.87989       47.34169       67.85840
H         71.20942       47.78013       67.15568
H         71.28243       46.21160       66.26610
H         70.97461       45.03921       68.31827
H         72.29609       46.10031       68.44515
H         70.82377       46.49551       69.20339
N         64.45857       47.27321       64.58753
C         63.02484       47.55243       64.69308
C         62.63953       47.58615       66.15428
O         62.82285       46.59803       66.85226
C         62.20354       46.49082       63.91874
C         60.69484       46.40382       64.26699
C         59.91074       47.69954       64.31862
O         59.36943       48.01876       65.36517
O         59.73707       48.48935       63.24181
H         64.77906       46.35951       64.94108
H         62.77465       48.54172       64.25083
H         62.61682       45.47754       64.11927
H         62.33303       46.67785       62.84141
H         60.61938       45.93602       65.27356
H         60.20918       45.70381       63.55304
N         62.06207       48.70951       66.66858
C         61.60835       48.82911       68.03645
H         60.51605       49.03121       68.03764
H         61.79616       47.90850       68.62593
H         62.13017       49.67970       68.52108
H         61.91022       49.52572       66.05620
Ca        60.74278       48.10245       61.29887
O         61.28877       49.90458       57.76150
H         61.09079       50.85756       57.94414
H         62.27603       49.84316       57.80781
O         58.26678       50.60834       58.95089
H         58.24006       50.94508       58.02021
H         58.02512       51.39333       59.50355
O         61.23792       50.98542       60.80844
H         61.11885       51.94831       61.00384
H         61.95282       50.69104       61.42731
O         58.07307       50.80238       62.18612
H         58.28424       50.76304       63.15250
H         57.55596       49.97621       62.00953

Ca 1.0



