%chk=apoCaM-CA-Ng.loop1.water5.frame659.chk
%nprocshared=20
%mem=10GB
%nosave
#b3lyp/svp scf=(tight,noincore,xqc) Test 
#IOP(5/87=12) Density=Current Pop=(MK,readradii) iop(6/33=2) iop(6/42=6)

apoCaM-CA-Ng.loop1.water5.frame659 

   0  1 
C        106.62291       27.88210       87.93455
C        106.88391       26.52044       88.51005
O        105.93119       25.82833       88.83999
H        106.06217       28.49399       88.67183
H        107.56987       28.40774       87.68884
H        106.02089       27.78656       87.00679
N        108.15977       26.06071       88.65137
C        108.47430       24.74356       89.20429
C        108.02456       24.60594       90.65927
O        107.52493       25.55796       91.24327
C        109.96723       24.40487       88.99036
C        110.90543       25.42937       89.56074
O        111.64394       26.05241       88.81497
O        110.94229       25.67819       90.87966
H        108.92909       26.66298       88.32152
H        107.90321       23.98552       88.62181
H        110.14077       24.35260       87.89169
H        110.20929       23.40433       89.40537
N        108.08536       23.38757       91.26777
C        107.43217       23.10051       92.54545
C        108.07628       23.75306       93.76438
O        107.48203       23.64036       94.82853
C        107.32939       21.57065       92.76446
C        106.46612       20.90154       91.67768
C        106.31919       19.39435       91.90839
C        105.41941       18.77512       90.82823
N        105.25348       17.33812       91.03779
H        108.49089       22.60646       90.73185
H        106.39044       23.48904       92.48544
H        106.84350       21.37251       93.74536
H        108.34819       21.12318       92.78242
H        106.91000       21.05833       90.67262
H        105.45612       21.36706       91.69113
H        105.86635       19.21601       92.90806
H        107.32190       18.91390       91.87739
H        105.86698       18.94985       89.82408
H        104.41992       19.26437       90.85501
H        104.62929       16.95533       90.29110
H        106.18061       16.85739       90.98429
H        104.81381       17.15954       91.96979
N        109.26158       24.43149       93.71957
C        109.86425       25.04916       94.90544
C        110.01483       26.55699       94.72120
O        110.19303       26.98124       93.58923
C        111.19682       24.35790       95.26031
C        112.22910       24.40796       94.16873
O        112.67158       23.26480       93.61068
O        112.69506       25.47418       93.80506
H        109.76666       24.50148       92.82632
H        109.22009       24.87424       95.77595
H        110.97470       23.29089       95.48163
H        111.62612       24.80855       96.18053
N        109.96769       27.46299       95.74931
C        109.73353       27.16682       97.15690
C        108.35083       26.61584       97.36939
O        108.22275       25.51673       97.89180
H        110.10820       28.45783       95.51185
H        109.80760       28.10962       97.74140
H        110.50997       26.46893       97.53539
N        107.26487       27.31663       96.93928
C        105.91882       26.75950       96.93819
C        105.44827       26.62552       95.50351
O        106.08314       27.15700       94.60069
C        104.95231       27.64783       97.74201
C        105.39237       27.79981       99.17104
O        105.64562       28.90636       99.62036
O        105.49961       26.71837       99.96637
H        107.40810       28.24972       96.52159
H        105.92397       25.73880       97.38103
H        103.93424       27.20129       97.73555
H        104.89286       28.65111       97.26375
N        104.35655       25.87353       95.20888
C        103.88263       25.69810       93.84848
C        103.21962       26.94753       93.31106
O        103.13533       27.95198       94.00533
H        103.87451       25.36507       95.96642
H        103.10894       24.89974       93.84735
H        104.71576       25.36549       93.19111
N        102.63019       26.90314       92.08541
C        101.75566       27.96561       91.59149
C        102.48822       29.23604       91.18405
O        103.70537       29.22827       91.05719
C        100.89110       27.44458       90.40908
C        101.71681       27.12757       89.15088
O        100.20410       26.28143       90.79467
H        102.69188       26.01404       91.56688
H        101.05726       28.21839       92.42063
H        100.14943       28.22208       90.11788
H         99.51820       26.55572       91.45741
H        102.47358       26.33928       89.34115
H        101.04154       26.76976       88.34535
H        102.24161       28.03184       88.77976
N        101.76632       30.37245       90.93995
C        102.32550       31.60868       90.39450
C        102.41067       32.70075       91.45872
O        103.08971       33.68665       91.21438
C        101.43126       32.08041       89.18666
C        101.30684       30.96348       88.11608
C        101.91873       33.39904       88.54569
C        100.30427       31.28180       87.00013
H        100.75139       30.35095       91.12842
H        103.36755       31.41985       90.05259
H        100.40966       32.26986       89.58950
H        100.92998       30.04095       88.60032
H        102.30142       30.74533       87.67183
H        102.94160       33.28160       88.13206
H        101.23622       33.73361       87.74076
H        101.90165       34.23710       89.26752
H        100.21616       30.40714       86.32245
H         99.30203       31.49426       87.43132
H        100.62857       32.14208       86.38221
N        101.73523       32.62140       92.64300
C        101.70705       33.72035       93.60823
C        100.29733       34.29187       93.67220
O         99.41209       33.77951       93.00262
C        102.25107       33.26832       94.98855
C        101.42655       32.16105       95.65997
O        103.59852       32.87944       94.88121
H        101.15683       31.79648       92.84644
H        102.35540       34.55685       93.26779
H        102.22502       34.14474       95.67053
H        103.63641       32.05256       94.33315
H        101.85702       31.93554       96.65868
H        100.37549       32.49005       95.79880
H        101.44077       31.22820       95.05966
N        100.03332       35.39613       94.42981
C         98.72793       36.04900       94.45973
C         98.88003       37.46241       93.92327
O         98.26780       37.76709       92.90731
C         98.11597       35.96987       95.87806
C         96.70616       36.56383       95.91876
O         98.91742       36.62276       96.82785
H        100.79774       35.81172       94.98015
H         98.01664       35.51466       93.79048
H         98.00942       34.89193       96.15027
H         99.57948       35.95974       97.15642
H         96.27761       36.44356       96.93598
H         96.72499       37.64474       95.66765
H         96.04589       36.03764       95.19605
N         99.72082       38.35924       94.51585
C        100.01329       39.67504       93.95790
C        101.47992       39.74745       93.58187
O        102.26884       38.93324       94.04667
C         99.69589       40.78765       94.97602
C         98.19468       40.91294       95.27970
C         97.89050       41.91966       96.40690
C         98.38703       43.34924       96.12563
N         98.01644       44.25341       97.21483
H        100.23188       38.08146       95.36693
H         99.42694       39.84551       93.02768
H        100.04754       41.75630       94.56216
H        100.25420       40.58050       95.91616
H         97.79943       39.92731       95.60543
H         97.65962       41.21271       94.35194
H         98.35289       41.55703       97.35076
H         96.78805       41.94531       96.55078
H         97.94657       43.72000       95.17413
H         99.49394       43.35449       96.02991
H         98.39026       45.20847       97.01034
H         96.97559       44.30843       97.29936
H         98.42650       43.91874       98.11731
N        101.91041       40.69797       92.70591
C        103.30607       40.83483       92.30349
C        103.86457       39.52139       91.75012
O        104.84356       39.05514       92.31552
C        103.51352       42.00906       91.31825
C        103.17557       43.37202       91.94521
C        103.43272       44.48638       90.97126
O        102.81891       44.53754       89.91691
O        104.33611       45.44173       91.26197
H        101.20753       41.33646       92.30227
H        103.90403       41.08435       93.21036
H        102.89982       41.87937       90.41006
H        104.58497       42.02883       91.01828
H        103.80524       43.52475       92.84834
H        102.10950       43.41557       92.25029
N        103.33248       38.81706       90.70711
C        102.15507       39.18627       89.95277
H        101.27499       39.28073       90.61988
H        102.32412       40.11641       89.38379
H        101.93271       38.39328       89.20706
H        103.78764       37.92731       90.44780
Ca       112.36446       27.28012       91.58838
O        115.05288       28.03929       92.75445
H        114.80189       28.46482       93.61247
H        115.51341       27.20317       93.01720
O        114.58882       26.66351       89.46237
H        114.78013       26.90107       88.52046
H        114.25227       25.73315       89.42039
O        112.75144       29.60149       89.64181
H        112.40832       29.12046       88.84720
H        111.96858       30.09876       89.98861
O        112.06599       29.80358       93.26403
H        111.41596       30.42284       92.84672
H        112.90613       30.32459       93.31883
O        109.52107       28.56157       90.95891
H        109.64861       28.72375       89.99080
H        108.80589       27.87920       91.00258

Ca 1.0



