%chk=apoCaM-CA-Ng.loop3.water4.frame252.chk
%nprocshared=20
%mem=10GB
%nosave
#b3lyp/svp scf=(tight,noincore,xqc) Test 
#IOP(5/87=12) Density=Current Pop=(MK,readradii) iop(6/33=2) iop(6/42=6)

apoCaM-CA-Ng.loop3.water4.frame252 

   0  1 
C         44.73094       58.53525        7.39273
C         44.74377       59.79856        6.57894
O         43.69725       60.40450        6.40058
H         45.40959       58.63482        8.26536
H         43.70864       58.30069        7.75931
H         45.07707       57.69044        6.76015
N         45.91615       60.23776        6.02982
C         46.06555       61.42257        5.17784
C         45.36322       61.28759        3.82366
O         45.41682       62.22756        3.04280
C         45.63893       62.70909        5.91971
C         46.38487       62.92010        7.21216
O         45.84645       63.69950        8.16849
O         47.51530       62.48226        7.36346
H         46.76947       59.69226        6.22537
H         47.14670       61.53277        4.93752
H         44.54984       62.70307        6.12682
H         45.83359       63.59430        5.27581
N         44.76378       60.12273        3.44581
C         44.16468       59.87053        2.13716
C         42.70469       59.43644        2.25173
O         41.97966       59.57211        1.27514
C         45.06665       58.81759        1.46533
C         44.54768       58.12128        0.20302
C         45.67047       57.21850       -0.33674
C         45.26429       56.42928       -1.58281
N         46.39813       55.64429       -2.07648
H         44.81495       59.32178        4.08403
H         44.16480       60.79478        1.51559
H         45.28184       58.01026        2.19993
H         46.02624       59.33576        1.23755
H         44.25570       58.86661       -0.56581
H         43.66225       57.50018        0.46772
H         45.98296       56.49730        0.45210
H         46.54203       57.86015       -0.59271
H         44.93419       57.13370       -2.37686
H         44.41975       55.74758       -1.33685
H         47.19612       56.27789       -2.31556
H         46.70708       54.95661       -1.35086
H         46.11328       55.12479       -2.93727
N         42.19535       58.92343        3.40497
C         40.79709       58.57735        3.59509
C         40.05965       59.84401        4.02713
O         40.53446       60.50920        4.93469
C         40.74169       57.43058        4.63255
C         39.38143       56.82905        4.76812
O         38.37086       57.57303        5.21245
O         39.18639       55.65533        4.49856
H         42.81059       58.77949        4.21370
H         40.36951       58.15859        2.65502
H         41.10128       57.78279        5.62457
H         41.42329       56.62042        4.28892
N         38.93453       60.27866        3.38652
C         38.26669       61.54429        3.69297
C         37.68820       61.68379        5.09779
O         37.24169       62.77609        5.41800
H         38.57279       59.72714        2.59853
H         37.44216       61.71134        2.96510
H         39.00805       62.35965        3.55437
N         37.63273       60.64732        5.97903
C         37.18243       60.76841        7.36482
C         38.13670       60.06373        8.33778
O         37.77098       59.84976        9.48530
C         35.74055       60.26975        7.49570
C         35.59162       58.75328        7.32854
N         35.13734       58.11612        8.56326
O         34.69142       58.47903        6.30822
H         37.89857       59.72318        5.64874
H         37.12624       61.83766        7.66068
H         35.10709       60.80614        6.75301
H         35.36015       60.58778        8.48938
H         34.48823       58.72993        9.10268
H         34.54020       57.31643        8.28012
N         39.38819       59.69191        7.94634
C         40.36287       59.02779        8.78928
C         39.90874       57.66228        9.23259
O         40.23464       57.27461       10.34518
H         39.70278       59.91247        7.00125
H         40.61273       59.65810        9.66873
H         41.29762       58.89654        8.19909
N         39.22459       56.84256        8.38644
C         38.82429       55.48862        8.74199
C         37.37603       55.20202        8.42439
O         36.73324       55.93030        7.68428
C         39.75069       54.48995        8.02339
C         41.10052       54.51865        8.68697
C         41.23370       53.95321        9.96617
C         42.21514       55.11105        8.07413
C         42.46113       53.97310       10.62434
C         43.44484       55.14195        8.74350
C         43.57262       54.57053       10.01652
O         44.76401       54.59932       10.64602
H         39.02054       57.17738        7.44067
H         38.90450       55.34940        9.84094
H         39.80757       54.76223        6.94681
H         39.37477       53.44494        8.07885
H         40.38179       53.48975       10.45024
H         42.12907       55.56407        7.09414
H         42.54318       53.52600       11.60705
H         44.29953       55.61107        8.27453
H         44.89004       54.20296       11.52047
N         36.81258       54.09914        8.98962
C         35.43184       53.68029        8.80689
C         34.49000       54.69161        9.45057
O         33.71592       55.25771        8.71104
C         35.25242       52.22734        9.33729
C         36.15856       51.21247        8.58016
C         33.80266       51.72800        9.27587
C         35.78338       50.96947        7.10997
H         37.41623       53.52516        9.59626
H         35.21155       53.64516        7.71858
H         35.56256       52.22341       10.40604
H         36.08760       50.23843        9.10702
H         37.22226       51.52553        8.61925
H         33.37278       51.79994        8.25802
H         33.74356       50.68455        9.64929
H         33.16366       52.31199        9.92039
H         35.90951       51.88394        6.50232
H         36.44080       50.18145        6.69030
H         34.74078       50.60646        7.00629
N         34.49406       55.00682       10.78307
C         33.60586       56.04693       11.33758
C         32.11347       55.69689       11.21446
O         31.28877       56.60002       11.21807
C         33.94869       56.36524       12.80326
O         35.32474       56.58895       12.97056
H         35.17890       54.54129       11.39593
H         33.79460       56.97408       10.75102
H         33.66203       55.50437       13.44193
H         33.37599       57.25238       13.16030
H         35.55202       57.41713       12.47478
N         31.71456       54.39994       11.05794
C         30.35497       53.92191       10.78246
C         29.74703       54.54600        9.51957
O         28.53366       54.54178        9.36749
C         29.45818       54.08732       12.01098
H         32.43970       53.69331       11.14147
H         30.40237       52.82264       10.60998
H         28.46486       53.62701       11.81348
H         29.90920       53.54453       12.87022
H         29.32053       55.15274       12.27861
N         30.55176       55.08827        8.56565
C         30.11721       55.83852        7.39710
C         30.55470       55.17752        6.09772
O         31.21790       54.15074        6.13014
C         30.72671       57.24478        7.50334
H         31.55005       54.99574        8.69166
H         29.00993       55.91790        7.37395
H         30.33972       57.75139        8.41291
H         31.83522       57.18087        7.59001
H         30.48347       57.87142        6.62215
N         30.14626       55.71625        4.90477
C         30.39527       55.17114        3.56698
C         30.28491       53.65334        3.54657
O         31.19449       52.98143        3.07660
C         31.73303       55.67958        2.98358
C         31.79933       57.20935        2.82374
C         33.20066       57.59924        2.46397
O         34.16998       57.47211        3.37250
O         33.47309       58.06425        1.37108
H         29.52495       56.53723        4.94694
H         29.59485       55.55535        2.89759
H         31.89819       55.23872        1.97337
H         32.55010       55.32490        3.62640
H         31.52651       57.73271        3.76449
H         31.09506       57.52169        2.02183
N         29.18284       53.04821        4.06869
C         28.99529       51.61169        4.09113
H         28.05095       51.36172        3.56572
H         29.82563       51.06567        3.59523
H         28.92709       51.26379        5.14322
H         28.44432       53.63115        4.49001
Ca        35.81621       57.24719        4.80873
O         36.42604       53.69925        4.75008
H         35.45043       53.57177        4.64198
H         36.82635       52.99979        4.17488
O         36.09250       54.94401        2.19624
H         35.35012       55.20557        1.59642
H         36.54085       54.19396        1.73072
O         37.09637       57.76345        2.40478
H         37.22327       57.37927        1.50337
H         36.51240       58.55167        2.26663
O         33.81499       55.58469        5.70668
H         33.49034       54.68216        5.47748
H         34.42218       55.42348        6.46335

Ca 1.0



