%chk=apoCaM-CA-Ng.loop4.water3.frame279.chk
%nprocshared=20
%mem=10GB
%nosave
#b3lyp/svp scf=(tight,noincore,xqc) Test 
#IOP(5/87=12) Density=Current Pop=(MK,readradii) iop(6/33=2) iop(6/42=6)

apoCaM-CA-Ng.loop4.water3.frame279 

   -3  1 
C         31.83505       31.28844        7.27876
C         31.46311       30.46270        6.05389
O         32.45127       29.49500        5.86940
H         32.83140       31.75482        7.12325
H         31.08817       32.09093        7.44606
H         31.88242       30.63460        8.17645
N         30.13544       29.84718        6.21569
C         29.64346       29.05157        5.06859
C         30.45506       27.79397        4.80805
O         31.19431       27.75047        3.84546
C         29.13946       29.84662        3.81932
C         29.98672       30.87257        3.08250
O         31.13834       30.57313        2.44774
O         29.54321       32.00352        2.95740
H         29.43743       30.60279        6.40907
H         28.67736       28.61311        5.40881
H         28.23303       30.39877        4.15766
H         28.78754       29.10277        3.07097
N         30.31178       26.71797        5.64612
C         30.96575       25.40547        5.55649
C         30.47507       24.58802        4.35827
O         29.80827       23.58822        4.59193
C         32.50853       25.49924        5.69566
C         33.20486       24.11082        5.66044
C         32.87353       26.24771        6.99510
C         32.78409       23.14331        6.77499
H         29.67089       26.83501        6.44667
H         30.61478       24.84489        6.45220
H         32.90810       26.07533        4.83614
H         34.30512       24.26131        5.72830
H         33.00058       23.62453        4.68305
H         32.46018       25.73775        7.88926
H         33.97185       26.32173        7.11008
H         32.46240       27.27469        6.98913
H         33.03231       23.54912        7.77728
H         31.70165       22.91297        6.72847
H         33.32433       22.18412        6.65024
N         30.71427       24.94365        3.06263
C         30.08064       24.26120        1.94405
C         30.71662       22.90921        1.63764
O         29.99593       21.92605        1.73129
C         30.00648       25.17788        0.70197
C         29.17544       24.56164       -0.39197
O         27.88525       24.24636       -0.16381
O         29.65887       24.35732       -1.49341
H         31.26575       25.77684        2.85556
H         29.01296       24.10181        2.22631
H         31.01572       25.42483        0.32063
H         29.51856       26.13388        0.99247
N         32.00314       22.72412        1.20597
C         33.04340       23.73337        1.06923
C         33.33414       24.03094       -0.38744
O         32.56725       23.58435       -1.22951
H         32.27782       21.76538        0.93902
H         33.94257       23.33830        1.56429
H         32.77033       24.67324        1.57082
N         34.38170       24.80238       -0.81398
C         35.50283       25.30256       -0.00668
C         35.08028       26.10587        1.20905
O         34.04797       26.75866        1.14067
C         36.44823       26.16597       -0.88800
C         35.80747       27.43910       -1.39808
O         36.34419       28.63281       -1.08275
O         34.81813       27.40103       -2.11241
H         34.41776       24.98067       -1.82992
H         36.07156       24.41653        0.33402
H         36.78944       25.56776       -1.75983
H         37.34905       26.44599       -0.30447
N         35.83896       26.20251        2.34623
C         37.12712       25.56733        2.62420
C         37.06050       24.07045        2.84873
O         36.00967       23.47376        2.68532
H         35.48916       26.83087        3.07951
H         37.51054       25.99457        3.57711
H         37.86554       25.81238        1.83425
N         38.17063       23.40176        3.28273
C         38.20789       21.95654        3.50859
C         38.31834       21.58979        4.98610
O         38.35443       20.40300        5.27653
C         39.35489       21.31694        2.68590
C         40.76621       21.69973        3.17682
C         41.83748       21.04067        2.34571
N         41.97995       21.34340        1.03444
O         42.59609       20.23554        2.86529
H         39.02100       23.95173        3.47746
H         37.26137       21.49560        3.15019
H         39.22556       21.60229        1.61976
H         39.26362       20.20942        2.75114
H         40.87484       21.36786        4.23191
H         40.92512       22.79612        3.13941
H         41.36188       22.03184        0.58158
H         42.71996       20.89716        0.47227
N         38.35528       22.53714        5.97167
C         38.46088       22.20809        7.39506
C         39.71768       22.78347        8.02951
O         39.93102       22.50455        9.20418
C         37.19167       22.66008        8.17078
C         35.97342       21.84320        7.73050
C         36.90187       24.16496        8.03304
H         38.29768       23.53065        5.71513
H         38.55128       21.10783        7.53212
H         37.34669       22.43803        9.25066
H         35.09093       22.12436        8.34257
H         35.74884       22.01348        6.65672
H         36.16202       20.75961        7.88960
H         36.66641       24.43353        6.98260
H         36.02426       24.44214        8.65502
H         37.77103       24.76522        8.37434
N         40.60943       23.55583        7.34292
C         41.84828       24.04000        7.93547
C         41.90660       25.55237        7.94329
O         42.10564       26.11801        9.00848
C         43.06439       23.48814        7.16798
C         43.11229       21.98185        7.17200
N         43.12925       21.29231        6.00824
O         43.15180       21.37876        8.23423
H         40.43729       23.78804        6.35423
H         41.95068       23.69512        8.99009
H         43.99378       23.86232        7.65027
H         43.04626       23.85811        6.12078
H         43.11456       21.78593        5.10436
H         43.16800       20.26251        6.00826
N         41.81629       26.26942        6.78274
C         42.12967       27.69533        6.71467
C         40.96092       28.52753        6.22307
O         39.94338       27.97714        5.83662
C         43.32248       27.86888        5.74861
C         44.48244       26.98009        6.13455
C         45.17409       27.18558        7.33855
C         44.86592       25.91853        5.29528
C         46.23009       26.34157        7.69769
C         45.91643       25.07255        5.65927
C         46.60218       25.27955        6.85965
O         47.61167       24.45234        7.19746
H         41.61790       25.77625        5.89956
H         42.40783       28.07715        7.72060
H         43.66033       28.92585        5.70334
H         42.97081       27.58770        4.72993
H         44.89479       27.99722        7.99813
H         44.34179       25.73233        4.36585
H         46.75513       26.51119        8.62889
H         46.19283       24.25141        5.00950
H         48.11057       24.55813        8.01986
N         41.06582       29.89224        6.24239
C         40.10332       30.87324        5.73313
C         38.70613       30.82467        6.34419
O         37.87760       31.61751        5.91727
C         40.07001       30.91968        4.18309
C         39.38035       29.75183        3.46518
C         39.33760       30.00558        1.98392
O         38.70788       31.09400        1.49981
O         39.87134       29.22634        1.21098
H         41.92747       30.28842        6.64832
H         40.50800       31.87453        6.00779
H         41.11137       31.02532        3.80605
H         39.52392       31.84871        3.90260
H         38.33758       29.64418        3.83242
H         39.93206       28.81034        3.63880
N         38.36784       29.97482        7.35580
C         37.02372       29.89675        7.91591
C         37.04752       30.39249        9.34471
O         36.32780       31.33400        9.64974
C         36.49379       28.44880        7.82665
C         36.46749       27.86873        6.39911
C         35.52778       28.58365        5.47179
O         35.73798       29.86461        5.12089
O         34.58166       27.98480        4.99495
H         39.08272       29.36184        7.76693
H         36.31657       30.55142        7.36486
H         35.46712       28.40141        8.25380
H         37.14647       27.78765        8.43658
H         36.15153       26.80696        6.47418
H         37.47909       27.87428        5.95425
N         37.87640       29.82981       10.26863
C         37.97689       30.29718       11.63619
H         39.01390       30.64605       11.82540
H         37.28423       31.13824       11.85086
H         37.74353       29.46325       12.32908
H         38.48737       29.04724        9.99319
Ca        32.80552       29.82435        3.68818
O         33.99414       32.70124        3.52073
H         34.61003       32.25985        4.15806
H         33.11384       32.68305        3.97405
O         32.95387       29.86913        0.06440
H         33.50071       29.83897       -0.76028
H         32.23806       30.52294       -0.13711
O         35.53816       29.83910        2.09981
H         36.24574       30.45274        2.41903
H         35.63995       29.83758        1.11627

Ca 1.0



