%chk=apoCaM-CA-Ng.loop1.water3.frame91.chk
%nprocshared=20
%mem=10GB
%nosave
#b3lyp/svp scf=(tight,noincore,xqc) Test 
#IOP(5/87=12) Density=Current Pop=(MK,readradii) iop(6/33=2) iop(6/42=6)

apoCaM-CA-Ng.loop1.water3.frame91 

   0  1 
C         51.05555       66.05443        3.60961
C         51.60652       66.11961        5.00398
O         51.07091       66.84756        5.82695
H         50.18742       66.73771        3.49480
H         51.84044       66.35258        2.88192
H         50.72930       65.01736        3.38585
N         52.70949       65.39091        5.32689
C         53.34249       65.41246        6.64288
C         54.69721       66.12392        6.59573
O         55.40200       66.11936        7.59498
C         53.39671       63.98246        7.23920
C         54.23175       62.98293        6.48331
O         53.93671       62.65479        5.34560
O         55.27283       62.38534        7.09380
H         53.14683       64.82782        4.58200
H         52.73058       66.00295        7.35882
H         52.36047       63.58374        7.29971
H         53.78743       64.05154        8.27821
N         55.08180       66.82844        5.48817
C         56.31476       67.60186        5.36067
C         55.97309       69.05746        5.07783
O         55.14869       69.26507        4.19703
C         57.12928       67.04026        4.18388
C         57.68615       65.65576        4.52768
C         58.58932       65.13161        3.41151
C         59.25371       63.81787        3.83743
N         60.16081       63.33169        2.80053
H         54.45955       66.84944        4.66787
H         56.93124       67.52225        6.26255
H         57.98802       67.71629        3.98382
H         56.50897       67.00134        3.26008
H         56.85753       64.93759        4.71412
H         58.29265       65.74945        5.45587
H         59.38578       65.88035        3.20580
H         57.99231       64.97984        2.48531
H         58.47430       63.05085        4.04266
H         59.83368       63.98832        4.77274
H         60.90588       64.04247        2.61508
H         60.61257       62.44873        3.13082
H         59.62960       63.13750        1.92121
N         56.52636       70.15316        5.69490
C         57.59832       70.27139        6.69266
C         58.93973       69.75692        6.17888
O         59.09610       68.55098        6.07173
C         57.26901       69.65243        8.06925
C         55.94666       70.10896        8.59882
O         55.69671       71.41995        8.77099
O         55.09216       69.28659        8.88461
H         56.15657       71.06458        5.37750
H         57.69957       71.36015        6.88381
H         58.05558       69.95980        8.78654
H         57.28279       68.54821        8.04824
N         59.99597       70.56536        5.86406
C         59.97678       72.02795        5.87508
C         61.33811       72.62488        5.52507
O         62.29672       71.87895        5.37959
H         60.85604       70.07934        5.56734
H         59.70797       72.39862        6.88749
H         59.21995       72.36546        5.13749
N         61.55561       73.96538        5.38950
C         60.54128       75.01321        5.40794
C         60.44496       75.63479        6.77907
O         61.45741       76.08226        7.29938
C         60.94179       76.10646        4.38611
C         59.95709       77.24795        4.31240
O         59.38023       77.49070        3.26534
O         59.73685       78.03478        5.38450
H         62.52591       74.25916        5.18853
H         59.55529       74.61471        5.08788
H         61.02942       75.63548        3.38320
H         61.93686       76.52903        4.65210
N         59.23015       75.78417        7.38158
C         59.06108       76.50405        8.62992
C         59.75511       75.78049        9.74390
O         60.92946       76.03233        9.97870
H         58.38330       75.43297        6.90826
H         57.97766       76.59707        8.86436
H         59.45873       77.53731        8.52370
N         59.08147       74.85669       10.47903
C         59.72048       74.03738       11.50153
C         59.42788       72.57490       11.22569
O         58.58347       72.29079       10.38202
C         59.21239       74.45518       12.89637
C         59.50529       75.93796       13.16261
O         59.84340       73.68075       13.88189
H         58.07390       74.71895       10.29456
H         60.82426       74.17744       11.46639
H         58.10915       74.28814       12.92753
H         59.27048       73.72296       14.69106
H         60.59834       76.13141       13.10841
H         58.98972       76.58398       12.42052
H         59.14013       76.22111       14.17106
N         60.11719       71.58078       11.85722
C         59.83623       70.17591       11.59853
C         59.74000       69.40885       12.90570
O         60.75321       69.27766       13.58228
C         60.92782       69.53514       10.68199
C         61.22741       70.41780        9.44217
C         60.47053       68.12449       10.26090
C         62.29818       69.83596        8.51702
H         60.89992       71.82567       12.48429
H         58.86956       70.08594       11.05670
H         61.87743       69.44950       11.25659
H         61.60978       71.40004        9.79390
H         60.30521       70.59498        8.85305
H         61.25321       67.58916        9.68867
H         60.25870       67.51470       11.15474
H         59.54614       68.17653        9.64677
H         61.94497       68.90437        8.02988
H         62.52379       70.56485        7.71293
H         63.23210       69.63110        9.08203
N         58.57653       68.80407       13.28021
C         58.50965       67.81731       14.35759
C         58.16569       66.43367       13.79448
O         58.16294       65.47675       14.55392
C         57.53424       68.25930       15.47808
C         56.06100       68.20411       15.06189
O         57.83906       69.56561       15.89550
H         57.72637       68.98566       12.72445
H         59.51056       67.71790       14.83348
H         57.63677       67.56365       16.34405
H         58.72222       69.52934       16.34718
H         55.42389       68.51758       15.91652
H         55.85870       68.87234       14.20115
H         55.77225       67.16547       14.79461
N         57.88350       66.26158       12.46196
C         57.59155       65.00428       11.78479
C         56.29891       64.36195       12.27043
O         55.76133       64.74032       13.30263
C         58.79833       64.02003       11.86211
C         60.10677       64.68301       11.41983
O         58.56449       62.91040       11.03533
H         57.89189       67.06956       11.82993
H         57.42956       65.25986       10.71180
H         58.91580       63.67851       12.91587
H         59.19010       62.19410       11.32025
H         60.93660       63.94612       11.45126
H         60.01460       65.07226       10.38317
H         60.37382       65.50521       12.11292
N         55.75786       63.34220       11.54901
C         54.63671       62.52902       12.00469
C         53.29685       63.25229       11.99806
O         52.33317       62.64750       12.44933
C         54.53923       61.24025       11.15271
C         55.83252       60.40711       11.24815
C         55.73702       59.10444       10.44886
C         57.05743       58.31096       10.46028
N         57.44616       57.87979       11.80517
H         56.21969       63.08664       10.66557
H         54.84775       62.21046       13.05051
H         54.33387       61.50470       10.09108
H         53.69854       60.61689       11.52920
H         56.02159       60.18030       12.31764
H         56.69343       60.98016       10.85067
H         55.50221       59.35281        9.39043
H         54.91480       58.47476       10.85203
H         57.87155       58.92808       10.01785
H         56.92557       57.41207        9.81915
H         56.67947       57.31741       12.24013
H         58.30368       57.28593       11.73516
H         57.67661       58.70050       12.40886
N         53.13197       64.52272       11.52230
C         51.82641       65.17988       11.53850
C         50.86088       64.43772       10.63470
O         51.07182       64.40056        9.43079
C         51.92932       66.65663       11.10140
C         52.70543       67.49255       12.13130
C         52.82085       68.92387       11.69957
O         51.82006       69.59464       11.50352
O         54.03595       69.48118       11.54902
H         53.94285       65.03573       11.14883
H         51.43399       65.16684       12.58021
H         50.90365       67.08231       11.02099
H         52.41369       66.72091       10.10081
H         53.72587       67.07921       12.27505
H         52.17308       67.45859       13.10692
N         49.77701       63.80406       11.16155
C         48.83274       63.07775       10.34141
H         48.33882       63.77127        9.62874
H         49.35418       62.27381        9.77924
H         48.05480       62.61261       10.98396
H         49.62119       63.82195       12.18077
Ca        53.68230       72.07463        9.55576
O         52.38826       69.80566        7.67385
H         53.20247       69.63690        7.13633
H         51.89808       68.94598        7.65570
O         55.61356       71.89093       12.01701
H         56.11706       72.35686       11.30403
H         56.28519       71.71380       12.72197
O         50.67342       72.21098       10.11278
H         50.38356       72.75938       10.88448
H         50.07837       71.41990       10.13126

Ca 1.0



