%chk=apoCaM-CA-Ng.loop1.water3.frame95.chk
%nprocshared=20
%mem=10GB
%nosave
#b3lyp/svp scf=(tight,noincore,xqc) Test 
#IOP(5/87=12) Density=Current Pop=(MK,readradii) iop(6/33=2) iop(6/42=6)

apoCaM-CA-Ng.loop1.water3.frame95 

   0  1 
C         54.84084       38.52822       98.66282
C         54.60054       37.05916       98.84734
O         54.17572       36.64921       99.91674
H         55.91281       38.69693       98.42371
H         54.21931       38.90813       97.82542
H         54.58983       39.09128       99.58622
N         54.87290       36.20179       97.82585
C         54.69054       34.75014       97.89014
C         55.58776       34.03467       98.90943
O         55.50137       32.81863       98.98532
C         54.86406       34.11946       96.48279
C         56.23750       34.25237       95.87351
O         56.88606       33.25115       95.61522
O         56.73722       35.45960       95.54932
H         55.18523       36.62556       96.94134
H         53.63978       34.54857       98.17966
H         54.12012       34.56465       95.78658
H         54.63285       33.04068       96.56277
N         56.45694       34.68982       99.72818
C         57.36966       34.02230      100.65253
C         57.04245       34.41484      102.09072
O         56.87649       35.60715      102.31267
C         58.80285       34.49028      100.31138
C         59.21442       34.11841       98.87866
C         60.61866       34.65290       98.56005
C         61.04076       34.40804       97.10138
N         61.13868       32.98463       96.77567
H         56.52579       35.71400       99.68681
H         57.31766       32.92542      100.53984
H         59.52906       34.04286      101.01621
H         58.86046       35.59604      100.42744
H         58.49805       34.56673       98.15713
H         59.18727       33.01298       98.77565
H         61.36336       34.19750       99.24895
H         60.62332       35.75339       98.72342
H         62.03635       34.88068       96.94761
H         60.31968       34.90168       96.41216
H         61.79877       32.50881       97.43247
H         60.19928       32.52991       96.81705
H         61.50302       32.88653       95.80058
N         56.99710       33.55418      103.16401
C         57.28184       32.11473      103.21067
C         58.54363       31.73680      102.44434
O         58.46479       30.95285      101.50802
C         56.05359       31.26250      102.83725
C         54.91192       31.39470      103.81068
O         54.97460       32.23833      104.86018
O         53.92606       30.68958      103.67067
H         56.84096       33.99353      104.08517
H         57.48462       31.83610      104.26971
H         56.35558       30.19862      102.90873
H         55.71268       31.48415      101.80422
N         59.76694       32.23472      102.77192
C         59.98701       33.11544      103.90803
C         61.40284       33.63727      103.95317
O         62.00205       33.80263      102.89980
H         60.56852       31.95192      102.18638
H         59.73003       32.56548      104.83521
H         59.34300       34.01218      103.83340
N         61.99995       34.03515      105.11122
C         61.41305       33.91102      106.44551
C         61.64414       32.51168      107.00933
O         62.24091       31.68280      106.33350
C         61.98136       35.01807      107.36652
C         63.47718       34.95962      107.53272
O         64.16770       35.89893      107.17030
O         64.06238       33.88146      108.08749
H         62.94075       34.45040      105.02746
H         60.31932       34.10705      106.39986
H         61.51055       34.96686      108.36960
H         61.70253       36.00230      106.92797
N         61.22426       32.18732      108.26887
C         61.49725       30.89497      108.88027
C         60.70802       29.75041      108.28284
O         60.98035       28.61774      108.65519
H         60.75387       32.89870      108.84593
H         61.24919       30.93125      109.96229
H         62.58697       30.68854      108.79115
N         59.71130       29.95409      107.37458
C         58.97000       28.87286      106.73870
C         59.25154       28.90902      105.25441
O         59.49196       29.97232      104.70502
C         57.45769       28.97483      107.04439
C         57.17462       28.80443      108.54469
O         56.73243       28.01227      106.31849
H         59.46572       30.91498      107.09569
H         59.31398       27.88296      107.11446
H         57.09568       29.97662      106.72729
H         57.05568       27.11371      106.59102
H         57.51687       27.80430      108.89084
H         57.69734       29.58290      109.13831
H         56.08410       28.88411      108.73648
N         59.31699       27.74565      104.56050
C         59.74034       27.64829      103.16943
C         58.61353       27.13788      102.27227
O         58.87652       26.88236      101.10853
C         61.03311       26.76748      103.09210
C         60.79950       25.31324      103.59419
C         62.17238       27.45796      103.87325
C         62.01313       24.39539      103.43042
H         59.08335       26.87498      105.05874
H         60.01231       28.64746      102.76107
H         61.34638       26.72148      102.02551
H         59.96457       24.86477      103.01544
H         60.52626       25.30239      104.66923
H         62.32892       28.48973      103.49252
H         61.93754       27.51379      104.95806
H         63.13488       26.92295      103.74855
H         61.74523       23.37210      103.76982
H         62.32490       24.34805      102.36655
H         62.86576       24.73370      104.05383
N         57.33721       26.97159      102.73480
C         56.24740       26.39774      101.93751
C         55.79361       27.22934      100.72438
O         55.03093       26.69573       99.93172
C         55.03009       26.07959      102.84637
C         54.37128       27.34408      103.42754
O         55.45236       25.24159      103.89306
H         57.14864       27.18799      103.72111
H         56.62475       25.42580      101.54712
H         54.27656       25.53835      102.22900
H         54.63675       24.85510      104.30589
H         54.00630       28.00623      102.61608
H         53.50039       27.05580      104.05200
H         55.07285       27.92040      104.06408
N         56.19176       28.52065      100.51561
C         55.84630       29.34860       99.34619
C         54.32847       29.60027       99.18441
O         53.53092       29.02062       99.90734
C         56.44734       28.71394       98.04854
C         57.92654       28.35293       98.20541
O         56.33800       29.60395       96.97019
H         56.82029       28.94594      101.20507
H         56.33545       30.33627       99.49650
H         55.88429       27.77989       97.81911
H         56.39937       29.06495       96.13915
H         58.31380       27.92820       97.25519
H         58.52532       29.24849       98.47450
H         58.04863       27.57473       98.97623
N         53.87040       30.42233       98.18669
C         52.46895       30.49920       97.76021
C         51.55912       31.29715       98.68750
O         50.34915       31.18647       98.53981
C         52.33501       31.18078       96.36434
C         53.26233       30.67303       95.24121
C         53.08416       29.19050       94.91437
C         54.03212       28.78253       93.77636
N         53.87892       27.36738       93.44791
H         54.56707       30.91255       97.62103
H         52.09505       29.45587       97.66744
H         52.54094       32.26615       96.47770
H         51.28140       31.08947       96.01883
H         54.32437       30.86296       95.49341
H         53.04377       31.27158       94.32926
H         52.03169       29.00571       94.60883
H         53.31711       28.57949       95.81226
H         55.08515       28.97345       94.08126
H         53.81867       29.39471       92.87157
H         54.09750       26.77958       94.28492
H         52.90178       27.17934       93.12650
H         54.54319       27.12212       92.67852
N         52.05271       32.24412       99.53466
C         51.19626       33.20487      100.23636
C         50.45791       34.06354       99.21749
O         51.10586       34.68436       98.38483
C         52.03835       34.16038      101.11386
C         52.85409       33.48674      102.22203
C         52.03291       32.95423      103.36314
O         51.21624       32.06421      103.19131
O         52.27524       33.41347      104.60767
H         53.07277       32.33782       99.61831
H         50.46969       32.66797      100.88134
H         51.38910       34.93888      101.57374
H         52.75957       34.67161      100.44683
H         53.54662       34.24928      102.63971
H         53.47578       32.67548      101.79694
N         49.10186       34.16899       99.23371
C         48.39429       35.00444       98.28468
H         47.30330       34.97631       98.48811
H         48.74199       36.05730       98.37020
H         48.57573       34.64310       97.24986
H         48.55621       33.66166       99.94583
Ca        51.42417       32.44919      106.46634
O         50.82598       29.78604      105.29980
H         51.14523       29.54794      104.39354
H         50.20532       29.05596      105.54722
O         53.60199       29.14623      106.66654
H         54.42674       29.42629      106.19655
H         53.33961       28.30024      106.22488
O         54.79213       31.54191      108.24528
H         55.12946       31.24516      109.12759
H         55.60696       31.77800      107.73491

Ca 1.0



