%chk=apoCaM-CA-Ng.loop1.water3.frame1213.chk
%nprocshared=20
%mem=10GB
%nosave
#b3lyp/svp scf=(tight,noincore,xqc) Test 
#IOP(5/87=12) Density=Current Pop=(MK,readradii) iop(6/33=2) iop(6/42=6)

apoCaM-CA-Ng.loop1.water3.frame1213 

   0  1 
C         37.92184       90.09663      104.39762
C         36.58512       89.46553      104.63895
O         35.93843       89.05965      103.68261
H         38.70758       89.48879      104.89203
H         38.13916       90.15144      103.30888
H         37.93340       91.12630      104.81475
N         36.08954       89.38540      105.90721
C         34.78611       88.80773      106.21361
C         33.78038       89.90707      106.46418
O         33.13744       89.94330      107.50521
C         34.88074       87.76425      107.35393
C         35.32923       88.29053      108.69968
O         35.42003       87.43842      109.73775
O         35.59626       89.46940      108.87364
H         36.64220       89.80420      106.66953
H         34.39647       88.26746      105.32626
H         35.58275       86.96282      107.04114
H         33.87689       87.30440      107.48958
N         33.56648       90.83190      105.48807
C         32.54088       91.85618      105.58349
C         31.18386       91.18394      105.71638
O         30.51380       91.47698      106.69705
C         32.61586       92.88031      104.41918
C         34.00456       93.55710      104.27797
C         34.45688       94.34249      105.52643
C         35.90573       94.85371      105.42988
N         36.11045       95.79414      104.32918
H         34.13377       90.77483      104.63158
H         32.70629       92.44140      106.51196
H         31.84735       93.66709      104.58546
H         32.38230       92.39506      103.45164
H         33.95738       94.25101      103.41221
H         34.76800       92.78843      104.04292
H         34.44990       93.68028      106.41393
H         33.75829       95.18712      105.71234
H         36.59682       93.98856      105.31366
H         36.15780       95.36037      106.38843
H         35.96877       95.32093      103.40896
H         35.46111       96.60777      104.42390
H         37.09656       96.14084      104.36615
N         30.70897       90.20708      104.88222
C         31.33795       89.67341      103.66602
C         31.80789       88.23564      103.85051
O         31.43969       87.58560      104.81841
C         30.37323       89.81069      102.45366
C         28.91783       89.61598      102.84170
O         28.47006       88.49180      103.44480
O         28.18084       90.58835      102.80282
H         29.81985       89.77428      105.17425
H         32.26361       90.22132      103.42573
H         30.68111       89.15786      101.60969
H         30.45637       90.86116      102.09537
N         32.74214       87.72281      102.98882
C         33.35178       86.40610      103.14678
C         32.44763       85.30021      102.67153
O         31.40589       85.59910      102.12272
H         33.10723       88.32893      102.23759
H         33.66023       86.25965      104.20298
H         34.26422       86.34754      102.51343
N         32.80628       83.98876      102.81402
C         32.01082       82.86351      102.28970
C         32.93309       81.74323      101.79688
O         34.12756       81.82625      102.04935
C         31.00219       82.36751      103.36551
C         30.06013       83.47419      103.74527
O         29.44025       84.14331      102.75731
O         30.01183       83.88754      104.89165
H         33.69812       83.79527      103.29554
H         31.46163       83.21659      101.39139
H         31.55170       82.00591      104.26283
H         30.38859       81.53876      102.98055
N         32.52710       80.66648      101.05531
C         31.19222       80.34735      100.56934
C         30.63250       81.37856       99.61785
O         31.34184       81.82818       98.72919
H         33.26129       79.99288      100.78260
H         30.49422       80.11884      101.39619
H         31.27204       79.40448       99.98534
N         29.31573       81.72042       99.69210
C         28.67106       82.65068       98.76932
C         29.14972       84.06121       99.03281
O         29.13316       84.48335      100.17497
C         27.12789       82.60175       98.90797
C         26.57226       81.23055       98.49807
O         26.56129       83.57962       98.06977
H         28.73663       81.25942      100.41074
H         28.89244       82.35920       97.71755
H         26.85976       82.81213       99.96850
H         25.63989       83.74886       98.39839
H         26.97782       80.41995       99.13640
H         25.46602       81.22860       98.59649
H         26.82846       81.01445       97.43794
N         29.50841       84.86826       97.99532
C         29.89184       86.27488       98.10031
C         28.78959       87.09383       98.76638
O         28.59737       86.98070       99.96894
C         31.25505       86.47844       98.82548
C         32.35081       85.57003       98.21358
C         31.66579       87.96657       98.78176
C         33.70381       85.66745       98.92393
H         29.46222       84.47627       97.04233
H         30.02514       86.63831       97.05629
H         31.12826       86.18945       99.87976
H         32.48776       85.80878       97.13727
H         32.02366       84.51192       98.29788
H         30.88195       88.61149       99.22846
H         32.58586       88.15018       99.37157
H         31.83311       88.29246       97.73325
H         33.59534       85.43066      100.00281
H         34.40923       84.93912       98.47212
H         34.15048       86.67561       98.80944
N         28.05226       87.97672       98.04203
C         27.06224       88.86439       98.64311
C         25.64625       88.59731       98.15667
O         24.76651       89.33258       98.58100
C         27.48540       90.34364       98.44194
C         27.65918       90.74663       96.97431
O         28.69620       90.58060       99.11261
H         28.21527       88.03626       97.02666
H         27.01025       88.71088       99.74123
H         26.69646       91.00870       98.86851
H         28.47000       90.73558      100.06707
H         28.49147       90.18499       96.50138
H         26.72468       90.57185       96.40260
H         27.91598       91.82564       96.91686
N         25.32149       87.56571       97.31720
C         23.93871       87.31203       96.90384
C         23.10216       86.96930       98.13652
O         23.21837       85.85755       98.62952
C         23.89257       86.17440       95.84796
C         22.48163       85.92031       95.31155
O         24.72875       86.51367       94.76950
H         26.06735       86.94836       96.96419
H         23.55803       88.24372       96.42824
H         24.26272       85.23871       96.33538
H         25.17493       85.67885       94.46728
H         22.51139       85.09233       94.57053
H         21.79071       85.62763       96.12909
H         22.09086       86.83074       94.80995
N         22.31838       87.92296       98.73296
C         21.60544       87.77675      100.00789
C         22.54280       87.42183      101.15430
O         23.24317       86.42402      101.07991
C         20.42658       86.79605       99.95182
C         19.35402       87.26098       98.94915
C         18.02053       86.50669       99.09565
C         17.28240       86.86332      100.40527
N         15.98505       86.19491      100.48216
H         22.27253       88.85322       98.28999
H         21.15061       88.76384      100.25310
H         19.99658       86.80405      100.97296
H         20.75085       85.75824       99.72452
H         19.75663       87.11635       97.92321
H         19.13857       88.34492       99.08048
H         18.19233       85.41125       99.02459
H         17.36704       86.81431       98.25056
H         17.12239       87.96476      100.44563
H         17.87683       86.57060      101.29447
H         15.50826       86.47933      101.36895
H         15.38514       86.47494       99.67285
H         16.11778       85.15784      100.48711
N         22.58207       88.18179      102.28559
C         23.54161       87.90865      103.34890
C         24.95022       88.12540      102.82241
O         25.72125       87.17950      102.88397
C         23.27568       88.72075      104.63596
C         21.96579       88.28033      105.30954
C         21.74996       89.01109      106.60267
O         21.61929       90.22459      106.61024
O         21.69149       88.32752      107.76205
H         21.92469       88.96999      102.38563
H         23.45036       86.83961      103.65380
H         23.25949       89.81135      104.44780
H         24.10240       88.51223      105.35195
H         22.01927       87.18935      105.52382
H         21.09934       88.46295      104.63991
N         25.39700       89.28526      102.25643
C         24.64989       90.51214      102.06468
H         23.61203       90.46804      102.42098
H         25.16338       91.33797      102.59997
H         24.62062       90.75566      100.98276
H         26.36076       89.29342      101.90371
Ca        28.96281       86.32804      103.06898
O         26.13263       85.16303      100.90685
H         26.00569       85.99685      100.38835
H         25.29593       84.65292      100.76579
O         28.34630       86.51803      105.91011
H         27.92553       85.69239      106.25789
H         29.31767       86.32807      105.93448
O         26.25993       84.37136      104.22368
H         25.84191       83.47398      104.23932
H         25.78809       84.87705      104.93246

Ca 1.0



