%chk=apoCaM-CA-Ng.loop2.water3.frame136.chk
%nprocshared=20
%mem=10GB
%nosave
#b3lyp/svp scf=(tight,noincore,xqc) Test 
#IOP(5/87=12) Density=Current Pop=(MK,readradii) iop(6/33=2) iop(6/42=6)

apoCaM-CA-Ng.loop2.water3.frame136 

   -2  1 
C         25.34323       60.85011      -10.86302
C         24.59256       61.60339      -11.92410
O         25.17033       61.87713      -12.96614
H         26.23213       61.43473      -10.54627
H         24.70864       60.65898       -9.97207
H         25.67901       59.87242      -11.26957
N         23.29108       61.96340      -11.72998
C         22.48481       62.66008      -12.72891
C         21.99838       64.02563      -12.21320
O         21.29654       64.70695      -12.94328
C         21.31182       61.72221      -13.10472
C         20.51317       62.11814      -14.32191
O         20.80811       63.09317      -14.99439
O         19.47824       61.34577      -14.70302
H         22.83491       61.70270      -10.84126
H         23.08853       62.83789      -13.64586
H         20.63291       61.62398      -12.22962
H         21.72655       60.71474      -13.33049
N         22.33907       64.49475      -10.97305
C         21.91974       65.77328      -10.39384
C         22.51420       67.00895      -11.11880
O         23.87546       66.78550      -11.35565
C         20.40122       65.84315      -10.20601
H         22.93814       63.91795      -10.36664
H         22.35356       65.81489       -9.37025
H         20.06390       64.98624       -9.58521
H         20.13026       66.78535       -9.68399
H         19.86254       65.80360      -11.17379
N         21.82757       67.37518      -12.37407
C         22.55661       68.41846      -13.14074
C         22.94589       67.84660      -14.49585
O         22.79754       68.51260      -15.51202
C         21.75324       69.73833      -13.26640
C         21.41541       70.33332      -11.92634
O         22.39425       70.69352      -11.07585
O         20.24955       70.50754      -11.60929
H         20.84856       67.67464      -12.16261
H         23.51377       68.68709      -12.64103
H         20.81584       69.54436      -13.83290
H         22.35246       70.48702      -13.82971
N         23.45600       66.58436      -14.57618
C         23.92762       65.98045      -15.80734
C         25.22929       66.61766      -16.20934
O         25.34650       67.13178      -17.31226
H         23.51704       66.00895      -13.72562
H         23.14897       66.04231      -16.59952
H         24.14007       64.90579      -15.61889
N         26.25397       66.63699      -15.31223
C         27.53798       67.27248      -15.56679
C         28.34909       66.47923      -16.57256
O         28.61925       65.30725      -16.34857
C         28.34855       67.43077      -14.26544
C         27.67625       68.39515      -13.31382
N         28.26421       69.57489      -13.00538
O         26.59032       68.11857      -12.82651
H         26.08605       66.21945      -14.38364
H         27.36387       68.30539      -15.94592
H         29.34574       67.84163      -14.53683
H         28.50723       66.44962      -13.76730
H         29.17381       69.83750      -13.41135
H         27.80208       70.23999      -12.36968
N         28.80564       67.09190      -17.69728
C         29.63103       66.45041      -18.70411
C         30.98566       66.03181      -18.17113
O         31.66273       66.84927      -17.56280
H         28.56224       68.08203      -17.85455
H         29.82340       67.19718      -19.50515
H         29.08876       65.59766      -19.16532
N         31.48783       64.79494      -18.46089
C         32.87167       64.41705      -18.16082
C         33.09210       63.99998      -16.70968
O         34.24412       63.84887      -16.32829
C         33.40143       63.33526      -19.14536
C         32.66779       61.98666      -19.07087
O         33.39855       63.82405      -20.46461
H         30.91259       64.18000      -19.05293
H         33.50895       65.31272      -18.34178
H         34.46376       63.13421      -18.88433
H         32.45683       63.89604      -20.76773
H         33.13900       61.26830      -19.77408
H         32.74170       61.56533      -18.05343
H         31.59712       62.08004      -19.34299
N         32.05683       63.78764      -15.84799
C         32.23621       63.44642      -14.43360
C         31.60807       64.53416      -13.57586
O         31.09374       65.49970      -14.12430
C         31.66253       62.02481      -14.11670
C         30.14689       61.90438      -14.42482
C         32.48891       60.95272      -14.84621
C         29.53747       60.57644      -13.96547
H         31.09284       63.88831      -16.19506
H         33.31361       63.42712      -14.15856
H         31.80664       61.82881      -13.03413
H         29.96041       62.02020      -15.51333
H         29.60492       62.71171      -13.88830
H         32.19260       59.93070      -14.53677
H         32.36513       61.04097      -15.93952
H         33.56562       61.06222      -14.59387
H         28.44670       60.57908      -14.17261
H         29.97674       59.71571      -14.50897
H         29.68951       60.43938      -12.87355
N         31.58466       64.42746      -12.21432
C         30.89735       65.39141      -11.36571
C         31.75558       65.82912      -10.16881
O         31.25512       66.57371       -9.33812
C         29.55474       64.75004      -10.96097
C         28.52008       65.72099      -10.45733
O         27.40589       65.30635      -10.18723
O         28.77473       67.03939      -10.35126
H         31.96420       63.58112      -11.76730
H         30.64322       66.29936      -11.95565
H         29.72681       63.92966      -10.23099
H         29.10070       64.30668      -11.87553
N         33.06792       65.45914      -10.03353
C         33.91521       65.92530       -8.93506
C         33.52236       65.25214       -7.62209
O         33.62268       64.03487       -7.55866
C         35.39809       65.59267       -9.22673
C         36.31923       66.20474       -8.19782
C         36.45270       67.60202       -8.11809
C         37.05289       65.39405       -7.31479
C         37.30446       68.17776       -7.17218
C         37.89869       65.97528       -6.36390
C         38.02545       67.36549       -6.29396
H         33.50887       64.88967      -10.76973
H         33.82846       67.03034       -8.88973
H         35.69314       65.98069      -10.22576
H         35.51861       64.48633       -9.25712
H         35.90292       68.24514       -8.79382
H         36.96428       64.31558       -7.35432
H         37.40528       69.25417       -7.12127
H         38.45676       65.34819       -5.68079
H         38.68284       67.81383       -5.56039
N         33.10399       65.94360       -6.51598
C         32.80091       65.31095       -5.23760
C         31.46492       64.57599       -5.22837
O         31.10352       64.06486       -4.17751
C         32.83230       66.48592       -4.25594
C         32.27737       67.61184       -5.09809
C         32.98875       67.38536       -6.43151
H         33.59657       64.59493       -4.93168
H         32.33079       66.30699       -3.28029
H         33.89923       66.73725       -4.05255
H         31.19090       67.41080       -5.23581
H         32.40085       68.63182       -4.67723
H         32.37538       67.82777       -7.24362
H         34.01346       67.81701       -6.43404
N         30.70174       64.43870       -6.35086
C         29.45735       63.68212       -6.39202
C         29.61398       62.41604       -7.23406
O         28.64960       61.66979       -7.33482
C         28.35752       64.55482       -7.00943
C         28.05344       65.85635       -6.25075
C         27.06343       66.63474       -7.06842
O         27.37008       67.71263       -7.55266
O         25.88566       66.06490       -7.38388
H         31.01638       64.85222       -7.23797
H         29.14701       63.36153       -5.37393
H         27.41830       63.96409       -7.09650
H         28.69918       64.81832       -8.02772
H         28.98258       66.45450       -6.13134
H         27.63420       65.63312       -5.24717
N         30.78587       62.10105       -7.86274
C         30.97837       60.91075       -8.66443
H         31.80945       60.31364       -8.23306
H         30.07144       60.27361       -8.70684
H         31.25277       61.20725       -9.69907
H         31.59841       62.72012       -7.78654
Ca        24.94736       66.49908       -9.37929
O         28.10907       69.89996       -9.59969
H         28.99339       69.96351      -10.04069
H         27.82648       70.84007       -9.47219
O         24.14319       69.27821       -7.93575
H         24.14303       68.69727       -7.13411
H         23.25904       69.12540       -8.35494
O         25.37961       70.40194      -11.19443
H         24.94863       70.32757      -10.30711
H         25.77669       71.30878      -11.20072

Ca 1.0



