%chk=apoCaM-CA-Ng.loop4.water4.frame215.chk
%nprocshared=20
%mem=10GB
%nosave
#b3lyp/svp scf=(tight,noincore,xqc) Test 
#IOP(5/87=12) Density=Current Pop=(MK,readradii) iop(6/33=2) iop(6/42=6)

apoCaM-CA-Ng.loop4.water4.frame215 

   -3  1 
C         45.35726       26.72999       75.30479
C         46.74718       27.26909       75.44974
O         47.53543       26.62727       76.11497
H         44.72655       27.38781       74.67400
H         45.40648       25.72354       74.83475
H         44.89268       26.63192       76.30850
N         47.13340       28.42204       74.83102
C         48.48882       28.96940       74.87606
C         49.48546       27.98512       74.29981
O         50.37179       27.53421       75.00038
C         48.84308       29.62858       76.23912
C         48.78342       28.84564       77.53219
O         49.71877       27.93908       77.88665
O         47.96744       29.18360       78.37535
H         46.44251       28.91872       74.24881
H         48.52466       29.83766       74.17869
H         48.11438       30.46390       76.34675
H         49.84812       30.09852       76.16594
N         49.36325       27.63888       72.98182
C         50.19694       26.72499       72.19553
C         51.61028       27.26417       71.96959
O         51.90930       27.60302       70.83194
C         50.14026       25.26244       72.71490
C         50.90630       24.27082       71.79256
C         48.67502       24.81063       72.88295
C         50.37047       24.15850       70.35628
H         48.57785       28.06715       72.46601
H         49.72269       26.70802       71.18875
H         50.62252       25.21696       73.71476
H         50.86370       23.26020       72.25349
H         51.97582       24.56417       71.73977
H         48.11194       24.89134       71.93011
H         48.62827       23.76075       73.23287
H         48.15446       25.43866       73.63333
H         49.31566       23.81755       70.34300
H         50.44753       25.12114       69.81275
H         50.97187       23.41269       69.79586
N         52.52889       27.39896       72.97130
C         53.83565       28.00590       72.74723
C         54.72250       27.11455       71.87110
O         55.07570       27.57674       70.79536
C         54.49873       28.45514       74.07709
C         53.72194       29.52419       74.80863
O         54.21652       30.02463       75.95682
O         52.65731       29.94613       74.38323
H         52.29594       27.10848       73.92446
H         53.68123       28.96154       72.19307
H         55.50131       28.87588       73.84766
H         54.61411       27.62756       74.79176
N         55.13667       25.84890       72.19172
C         54.82012       25.16705       73.43715
C         55.44531       23.78344       73.56560
O         56.06500       23.32352       72.61712
H         55.72537       25.36709       71.49549
H         53.71960       25.07543       73.52615
H         55.23887       25.76209       74.23788
N         55.32699       23.00745       74.69224
C         54.67359       23.36110       75.95106
C         53.21186       23.73073       75.74228
O         52.85448       24.87830       75.96717
C         55.50731       24.41139       76.73367
C         54.98633       24.63266       78.12847
O         54.67153       25.75256       78.49621
O         54.89605       23.60230       78.99055
H         55.74470       22.06382       74.65694
H         54.69586       22.46643       76.61079
H         55.55335       25.38730       76.22783
H         56.54703       24.03175       76.82604
N         52.26728       22.82337       75.35930
C         52.48622       21.40132       75.16256
C         53.08557       21.08295       73.82286
O         53.31654       21.98065       73.02687
H         51.29966       23.14976       75.28422
H         51.50091       20.88986       75.17066
H         53.07667       20.97861       76.00107
N         53.29041       19.78184       73.47922
C         53.80531       19.38238       72.17524
C         52.69333       18.86090       71.27780
O         52.96796       18.58374       70.11821
C         54.95836       18.36732       72.33885
C         54.49802       16.98113       72.83286
C         55.67637       16.05737       72.99803
N         55.80812       14.95291       72.22648
O         56.52411       16.30971       73.84117
H         53.00391       19.05233       74.14931
H         54.22437       20.27409       71.65906
H         55.71035       18.79655       73.03795
H         55.45170       18.22625       71.35191
H         53.79065       16.55622       72.08870
H         53.96963       17.04674       73.80607
H         55.11562       14.72774       71.49888
H         56.61649       14.32493       72.34629
N         51.41370       18.71743       71.73710
C         50.29581       18.27448       70.91142
C         49.73403       16.94121       71.38342
O         48.82171       16.44090       70.74082
C         49.17798       19.35394       70.89814
C         49.70440       20.68351       70.34735
C         48.55100       19.58154       72.28581
H         51.20544       18.93301       72.72013
H         50.63479       18.11703       69.86366
H         48.36942       19.00352       70.21933
H         50.50434       21.09299       71.00094
H         50.11308       20.54304       69.32506
H         48.87753       21.42233       70.29544
H         48.13169       18.63780       72.69435
H         49.28812       19.98319       73.01063
H         47.72054       20.31305       72.20364
N         50.22508       16.30381       72.48494
C         49.74095       15.01335       72.94904
C         49.18980       15.11087       74.36810
O         48.11646       14.57547       74.60799
C         50.88597       13.98332       72.86278
C         51.42873       13.86906       71.45271
N         50.63559       13.49304       70.42039
O         52.60404       14.12366       71.24187
H         51.00803       16.71803       73.00591
H         48.92323       14.62797       72.30124
H         50.51484       12.98441       73.18064
H         51.70971       14.28073       73.54888
H         49.64127       13.26867       70.56527
H         51.01833       13.42867       69.46465
N         49.87359       15.75199       75.36401
C         49.48920       15.70747       76.77499
C         49.17958       17.07804       77.37327
O         49.94741       18.01097       77.18735
C         50.66264       15.09707       77.56504
C         50.95500       13.68272       77.13294
C         50.01305       12.66638       77.36330
C         52.17070       13.36433       76.50607
C         50.28419       11.35217       76.97612
C         52.43723       12.04954       76.11318
C         51.49848       11.03921       76.34884
O         51.77394        9.77452       75.97235
H         50.75419       16.23561       75.13561
H         48.60143       15.05698       76.92960
H         50.43709       15.08529       78.65309
H         51.55821       15.74180       77.41627
H         49.07254       12.88964       77.85156
H         52.90999       14.13259       76.31587
H         49.55076       10.57891       77.16680
H         53.37615       11.81583       75.62766
H         51.15447        9.04672       76.12535
N         48.12944       17.19689       78.24746
C         47.84099       18.34695       79.11252
C         47.31073       19.58731       78.41746
O         47.03997       20.54746       79.12760
C         49.03679       18.70680       80.02532
C         49.42318       17.55654       80.96197
C         50.51172       17.98937       81.90146
O         50.28965       18.00264       83.22996
O         51.59828       18.33790       81.46777
H         47.54134       16.36413       78.40582
H         47.00926       18.04883       79.79168
H         48.74161       19.56268       80.67303
H         49.91050       19.03135       79.42334
H         49.76694       16.67707       80.38027
H         48.53229       17.25999       81.55873
N         47.04039       19.64091       77.08503
C         46.40816       20.80862       76.47527
C         44.96821       20.51341       76.08349
O         44.31595       21.41591       75.57573
C         47.21743       21.27442       75.25759
C         48.67176       21.66175       75.55900
C         48.79579       22.86220       76.45386
O         48.50986       22.79792       77.63796
O         49.22962       24.02279       75.93298
H         47.21392       18.81537       76.49291
H         46.33993       21.65415       77.19143
H         46.71844       22.15140       74.78700
H         47.22295       20.44758       74.52088
H         49.13788       21.91512       74.58367
H         49.24024       20.81088       75.98923
N         44.38587       19.30035       76.32159
C         43.00209       19.00700       76.01178
H         42.47273       19.87233       75.56140
H         42.95740       18.15548       75.30229
H         42.47405       18.72527       76.94718
H         44.92193       18.53833       76.75869
Ca        49.78709       25.81500       77.15698
O         51.37845       23.58540       78.69084
H         51.00305       22.75213       79.07142
H         52.09547       23.84528       79.32159
O         47.76962       25.82491       79.52114
H         47.82401       24.85449       79.33384
H         47.22747       26.19060       78.77807
O         52.58592       27.42269       77.28754
H         52.58354       27.31824       78.27132
H         52.40468       28.38400       77.14415
O         51.11252       26.48655       80.35775
H         51.03764       25.65077       80.88263
H         50.22078       26.90919       80.43503

Ca 1.0



