%chk=apoCaM-CA-Ng.loop3.water5.frame339.chk
%nprocshared=20
%mem=10GB
%nosave
#b3lyp/svp scf=(tight,noincore,xqc) Test 
#IOP(5/87=12) Density=Current Pop=(MK,readradii) iop(6/33=2) iop(6/42=6)

apoCaM-CA-Ng.loop3.water5.frame339 

   0  1 
C         78.80244       77.74045       75.42886
C         80.22928       77.29903       75.28991
O         80.48853       76.28498       74.65860
H         78.11743       77.04238       74.90783
H         78.52650       77.76962       76.50435
H         78.68133       78.75592       74.99610
N         81.21390       78.02821       75.88358
C         82.63546       77.70213       75.85584
C         82.88948       76.36023       76.53524
O         83.54667       75.49472       75.97309
C         83.18456       77.80332       74.41097
C         84.68577       77.70585       74.30689
O         85.21421       77.77994       73.20933
O         85.45852       77.55586       75.40093
H         80.93817       78.87091       76.41228
H         83.15248       78.47786       76.46449
H         82.89086       78.79109       73.99338
H         82.73081       77.01195       73.77796
N         82.35053       76.12515       77.76395
C         82.54107       74.89163       78.52159
C         81.35599       73.94159       78.40765
O         81.40841       72.88375       79.02131
C         82.92338       75.20056       79.99269
C         82.03402       76.20693       80.75549
C         80.53415       75.88202       80.75899
C         79.76059       76.92751       81.57472
N         78.31876       76.70037       81.48919
H         81.72252       76.84295       78.15190
H         83.38378       74.30214       78.09614
H         83.94954       75.62902       80.00035
H         82.97080       74.24339       80.55669
H         82.17290       77.21761       80.31554
H         82.40518       76.25371       81.80277
H         80.35869       74.86980       81.18301
H         80.15192       75.91224       79.71867
H         79.98444       77.94612       81.18506
H         80.08479       76.88062       82.63818
H         77.82572       77.41629       82.07041
H         78.00177       76.79933       80.49683
H         78.07888       75.74667       81.84382
N         80.30074       74.19169       77.57796
C         79.24001       73.21836       77.33088
C         79.85346       71.91258       76.82931
O         80.74769       71.94604       75.99527
C         78.20593       73.79987       76.33717
C         77.06951       72.84698       76.07774
O         75.80909       73.13631       76.43928
O         77.27968       71.78698       75.52266
H         80.27377       75.07671       77.05471
H         78.69518       73.02470       78.28223
H         78.69087       74.05756       75.37041
H         77.79098       74.73313       76.77754
N         79.40994       70.72151       77.32262
C         79.98984       69.42235       77.01413
C         80.12879       69.14321       75.53506
O         81.22384       68.80112       75.11084
H         78.61086       70.72993       77.97498
H         79.34791       68.63689       77.46962
H         80.99251       69.34873       77.48844
N         79.07501       69.28433       74.68554
C         79.15984       69.00333       73.25353
C         79.33659       70.26178       72.40912
O         79.52361       70.12489       71.20831
C         77.96680       68.12241       72.81538
C         76.59398       68.74477       72.96895
N         75.49495       68.01141       72.68439
O         76.45959       69.89695       73.35057
H         78.19098       69.63050       75.07249
H         80.07901       68.40977       73.05380
H         77.99055       67.19736       73.43163
H         78.09652       67.82769       71.75174
H         75.58053       67.03666       72.36190
H         74.55459       68.41791       72.79095
N         79.34570       71.50971       72.96196
C         79.66588       72.72326       72.22578
C         78.49692       73.67254       72.11038
O         78.70727       74.78638       71.65025
H         79.15810       71.62449       73.96340
H         80.02049       72.50699       71.19535
H         80.49609       73.22851       72.76507
N         77.22713       73.29122       72.42481
C         76.07376       74.15618       72.22011
C         74.80735       73.33784       72.34246
O         74.51070       72.86612       73.43177
C         76.05590       75.30537       73.25377
C         74.84041       76.18721       73.09506
C         74.68962       76.98999       71.95395
C         73.84142       76.20402       74.08460
C         73.55837       77.79808       71.80460
C         72.70668       77.00473       73.92856
C         72.56213       77.80611       72.78705
O         71.47295       78.58352       72.62284
H         77.06218       72.32368       72.73528
H         76.12452       74.56433       71.18630
H         76.96861       75.92918       73.17600
H         76.05619       74.84913       74.26718
H         75.45012       76.99264       71.18351
H         73.93191       75.58752       74.97069
H         73.45461       78.41581       70.92186
H         71.94037       76.99930       74.69376
H         70.75895       78.61337       73.27567
N         74.02672       73.10459       71.24887
C         72.78804       72.34135       71.32007
C         72.96199       70.94652       70.72501
O         72.03063       70.16845       70.84743
C         71.59299       73.15166       70.70553
C         71.67211       73.24494       69.16023
C         71.51212       74.54583       71.35148
C         70.54081       74.01774       68.48537
H         74.33808       73.45623       70.33119
H         72.53079       72.16441       72.38801
H         70.65118       72.61174       70.95229
H         71.57017       72.22598       68.77764
H         72.63878       73.67807       68.82945
H         70.60844       75.09040       71.00999
H         71.44559       74.45573       72.45539
H         72.40511       75.15134       71.08963
H         70.65297       73.92638       67.38241
H         69.55505       73.59574       68.77315
H         70.58466       75.09545       68.73824
N         74.12295       70.53810       70.10885
C         74.32448       69.17665       69.59335
C         73.34364       68.78437       68.49292
O         73.24924       67.60272       68.19180
C         75.77213       68.97591       69.12196
O         76.05488       69.84135       68.05392
H         74.91071       71.19660       70.03623
H         74.14611       68.48114       70.43972
H         75.93185       67.92436       68.79827
H         76.44762       69.17999       69.98626
H         77.00937       70.10032       68.13745
N         72.52178       69.70897       67.92001
C         71.38098       69.43874       67.04688
C         70.25235       68.64951       67.73745
O         69.22674       68.43771       67.10620
C         71.83465       68.77311       65.74373
H         72.71013       70.68874       68.12722
H         70.94427       70.42435       66.76499
H         72.24812       67.76110       65.92234
H         70.97672       68.68408       65.04400
H         72.61187       69.40051       65.25577
N         70.36240       68.18366       69.01871
C         69.35552       67.38954       69.71118
C         68.11157       68.19077       70.02395
O         68.21645       69.23221       70.65781
C         69.93048       66.87061       71.03806
H         71.22059       68.35352       69.54110
H         69.11173       66.49533       69.09692
H         70.21243       67.71432       71.70600
H         69.18326       66.23427       71.55828
H         70.83688       66.25889       70.84185
N         66.88521       67.71919       69.65780
C         65.62065       68.36074       70.00024
C         65.56269       69.74860       69.39427
O         65.37124       70.72670       70.10575
C         65.38227       68.36548       71.53418
C         65.39050       66.94959       72.13058
C         65.12742       66.98982       73.60983
O         64.15792       66.41439       74.07805
O         65.96716       67.65184       74.42923
H         66.83420       66.83845       69.12373
H         64.79584       67.76789       69.54466
H         64.38971       68.82597       71.73835
H         66.15447       68.97956       72.04452
H         66.37857       66.46981       71.96467
H         64.60999       66.33514       71.63020
N         65.73559       69.90106       68.05453
C         65.70780       71.19883       67.41942
H         66.50141       71.84673       67.84931
H         65.88932       71.08861       66.32963
H         64.71560       71.67365       67.57241
H         65.90307       69.06967       67.46732
Ca        74.34253       71.47039       75.98790
O         74.26371       71.02884       78.96318
H         73.35969       71.14556       78.57580
H         74.54149       71.94327       79.22154
O         76.32653       68.75606       76.72011
H         76.90019       67.96583       76.55576
H         76.56973       69.05534       77.63190
O         72.53003       69.47103       74.15540
H         71.74193       70.02140       73.91981
H         72.23969       68.53785       73.99498
O         71.85398       72.99792       75.98459
H         71.88601       72.97868       74.99505
H         72.63920       73.54163       76.24710
O         73.31963       68.67367       77.05759
H         73.48018       67.70199       76.95733
H         72.34004       68.77734       76.95893

Ca 1.0



