%chk=apoCaM-CA-Ng.loop1.water4.frame706.chk
%nprocshared=20
%mem=10GB
%nosave
#b3lyp/svp scf=(tight,noincore,xqc) Test 
#IOP(5/87=12) Density=Current Pop=(MK,readradii) iop(6/33=2) iop(6/42=6)

apoCaM-CA-Ng.loop1.water4.frame706 

   0  1 
C        105.74485      116.63081       -4.13916
C        106.95632      115.88955       -3.65514
O        107.51366      115.09068       -4.39382
H        104.88033      116.40054       -3.47987
H        105.94079      117.72325       -4.10597
H        105.48900      116.34056       -5.17941
N        107.41351      116.11181       -2.39469
C        108.57608      115.44014       -1.82097
C        108.42263      113.91743       -1.86406
O        107.43078      113.38985       -1.37946
C        108.85118      115.92768       -0.37446
C        107.71832      115.60471        0.55840
O        107.88803      114.64045        1.47048
O        106.61650      116.10992        0.41806
H        106.90494      116.80685       -1.82960
H        109.47102      115.72270       -2.41656
H        109.05938      117.01914       -0.35468
H        109.76738      115.40509       -0.01749
N        109.41665      113.15585       -2.40620
C        109.40352      111.69865       -2.48132
C        110.26161      111.13828       -1.36247
O        111.40585      111.54672       -1.22018
C        109.94405      111.25073       -3.85804
C        110.00277      109.71842       -4.00861
C        110.61642      109.31708       -5.35729
C        110.74810      107.79317       -5.46930
N        111.36343      107.40301       -6.73702
H        110.27325      113.63417       -2.72388
H        108.36724      111.30652       -2.37939
H        110.97122      111.65763       -3.98824
H        109.29697      111.67109       -4.65874
H        108.97985      109.29172       -3.91509
H        110.63923      109.29240       -3.20277
H        111.63084      109.76505       -5.44212
H        109.98302      109.70066       -6.18608
H        109.74243      107.32361       -5.38944
H        111.38450      107.42583       -4.63435
H        111.44237      106.36054       -6.77122
H        110.77386      107.72493       -7.53820
H        112.32199      107.81466       -6.81297
N        109.77031      110.15592       -0.55332
C        110.52945      109.57381        0.55884
C        109.86416      108.29811        1.09080
O        108.71608      108.04829        0.74988
C        110.67337      110.63319        1.67848
C        109.33898      111.19008        2.09956
O        109.11439      112.37826        1.96064
O        108.38763      110.39415        2.62393
H        108.82881      109.79765       -0.77019
H        111.52319      109.27971        0.17210
H        111.29981      111.47156        1.30707
H        111.17792      110.22869        2.57128
N        110.47574      107.40862        1.93196
C        111.85304      107.41599        2.41114
C        112.87806      107.08708        1.34518
O        112.56922      107.08155        0.16420
H        109.90147      106.61696        2.26362
H        111.93242      106.59204        3.15387
H        112.11689      108.34314        2.95155
N        114.13840      106.73851        1.73287
C        115.21256      106.36693        0.81513
C        114.82015      105.19102       -0.06766
O        114.50012      104.12849        0.44808
C        116.47894      105.99183        1.62417
C        117.64106      105.61598        0.74392
O        118.10283      106.42277       -0.04681
O        118.18152      104.38481        0.83102
H        114.33748      106.72484        2.74600
H        115.45525      107.24806        0.18081
H        116.24464      105.13367        2.29374
H        116.78405      106.84963        2.26097
N        114.89828      105.30377       -1.42442
C        114.70419      104.18105       -2.32715
C        113.28404      103.66021       -2.42565
O        113.10067      102.68914       -3.14637
H        115.20709      106.19838       -1.83542
H        115.38557      103.35881       -2.02019
H        115.00199      104.49409       -3.35308
N        112.22469      104.26550       -1.81131
C        110.84148      103.83851       -2.01475
C        110.08392      103.63369       -0.71377
O        110.23772      104.42357        0.20861
C        110.08803      104.86271       -2.89845
C        109.94035      106.25437       -2.26572
O        110.74792      104.98999       -4.13015
H        112.38790      105.11236       -1.25678
H        110.80581      102.88634       -2.58887
H        109.05432      104.48823       -3.07835
H        110.47317      104.21719       -4.68981
H        110.92917      106.72271       -2.08507
H        109.36038      106.91093       -2.94472
H        109.37969      106.20369       -1.31076
N        109.12499      102.66371       -0.64498
C        108.14869      102.54943        0.43944
C        108.33055      101.26136        1.23066
O        107.87395      101.21553        2.36367
C        106.71237      102.61667       -0.17804
C        106.49631      103.95785       -0.92764
C        105.60255      102.40287        0.87265
C        105.25906      103.95276       -1.83018
H        109.02048      102.02702       -1.45057
H        108.28562      103.38736        1.16023
H        106.64385      101.78751       -0.91888
H        107.34948      104.15353       -1.60292
H        106.44165      104.79661       -0.19997
H        105.64705      103.19273        1.65177
H        104.59822      102.40458        0.40903
H        105.69160      101.40905        1.35411
H        105.35289      103.14803       -2.59183
H        104.32174      103.80668       -1.26018
H        105.18528      104.92518       -2.36054
N        109.00405      100.18919        0.72730
C        109.18837       98.94548        1.47069
C        108.79094       97.74771        0.61227
O        108.36605       97.93501       -0.51854
C        110.63952       98.88184        2.00241
C        111.70652       98.95874        0.90480
O        110.84735       99.89937        2.95350
H        109.42584      100.24672       -0.20828
H        108.52823       98.91710        2.36586
H        110.77678       97.92087        2.53827
H        110.82333      100.77505        2.48603
H        112.71176       98.88828        1.36924
H        111.58127       98.12597        0.18325
H        111.64794       99.92580        0.36133
N        108.88275       96.47696        1.11021
C        108.43757       95.29583        0.37599
C        107.33137       94.64071        1.18812
O        106.19368       94.63003        0.73641
C        109.64549       94.37801        0.03689
C        109.24625       93.22494       -0.88391
O        110.25706       93.85076        1.18552
H        109.25185       96.34155        2.06157
H        108.00284       95.60354       -0.60056
H        110.39077       94.98046       -0.53548
H        110.89973       94.52990        1.51778
H        108.49831       92.56640       -0.39544
H        108.82138       93.62326       -1.83029
H        110.14465       92.62108       -1.13613
N        107.58473       94.13739        2.42851
C        106.55820       93.70598        3.36964
C        106.70494       94.50001        4.66126
O        107.69047       95.21013        4.82620
C        106.59388       92.17317        3.58386
C        108.00160       91.57959        3.77432
C        107.93295       90.05757        3.97565
C        109.33039       89.42221        3.92354
N        109.25995       87.97891        4.15414
H        108.55528       94.12525        2.77061
H        105.54723       93.95303        2.97563
H        106.17817       91.70028        2.66672
H        105.92742       91.89963        4.43112
H        108.52055       92.04876        4.63745
H        108.58558       91.77959        2.84912
H        107.32162       89.59869        3.16735
H        107.44806       89.84323        4.95306
H        109.99071       89.88470        4.68908
H        109.77424       89.60796        2.91879
H        108.90197       87.78933        5.11828
H        108.63227       87.52680        3.44980
H        110.21781       87.56935        4.06259
N        105.71602       94.48786        5.59916
C        105.76738       95.31564        6.80351
C        105.93744       96.79513        6.45270
O        106.91398       97.36575        6.91748
C        104.53676       95.11267        7.72075
C        104.46344       93.68890        8.29073
C        103.26166       93.53285        9.17877
O        102.40818       92.70085        8.91536
O        103.12145       94.30553       10.27333
H        104.88480       93.90184        5.42555
H        106.65700       95.01053        7.40169
H        103.59275       95.34330        7.18954
H        104.62025       95.81791        8.57824
H        105.37763       93.47943        8.88720
H        104.40560       92.94833        7.46559
N        105.09286       97.51737        5.65544
C        103.91783       97.02298        4.96778
H        103.02712       97.58731        5.31472
H        104.04093       97.18889        3.87706
H        103.73369       95.94833        5.11458
H        105.31427       98.51419        5.50364
Ca       106.12072      113.29363        1.81904
O        107.13049      112.99086        4.47265
H        106.39235      112.81363        5.10768
H        107.14571      113.97665        4.37738
O        105.71101      110.84778       -0.44405
H        106.28981      110.61748       -1.21327
H        104.79416      110.85183       -0.81794
O        103.82079      113.83647       -0.15773
H        104.23376      113.91055       -1.05451
H        103.97165      114.72232        0.25810
O        104.07542      114.55802        3.35759
H        103.97015      113.57512        3.29434
H        103.32972      114.92005        2.81718

Ca 1.0



