%chk=apoCaM-CA-Ng.loop1.water2.frame937.chk
%nprocshared=20
%mem=10GB
%nosave
#b3lyp/svp scf=(tight,noincore,xqc) Test 
#IOP(5/87=12) Density=Current Pop=(MK,readradii) iop(6/33=2) iop(6/42=6)

apoCaM-CA-Ng.loop1.water2.frame937 

   0  1 
C         12.00696       -9.16845       61.09729
C         12.44049       -9.25744       62.53103
O         12.27827      -10.30648       63.13868
H         11.24719       -8.36920       60.97891
H         12.88583       -8.93536       60.45911
H         11.57257      -10.13318       60.75624
N         13.04033       -8.19105       63.13145
C         13.56130       -8.25277       64.49100
C         12.46993       -8.46447       65.53345
O         11.62875       -7.59928       65.71610
C         14.46483       -7.04255       64.81037
C         13.93772       -5.62117       64.73226
O         14.71716       -4.72945       65.02792
O         12.69633       -5.25382       64.33711
H         13.19065       -7.33767       62.57122
H         14.24605       -9.12942       64.53268
H         15.32822       -7.08896       64.11014
H         14.86294       -7.19560       65.83711
N         12.42443       -9.62425       66.25560
C         11.38140       -9.90524       67.23911
C         11.47380       -8.92884       68.40647
O         12.46137       -8.94765       69.12765
C         11.48034      -11.37726       67.70727
C         10.35563      -11.77368       68.67960
C         10.32575      -13.28019       68.99958
C         11.59779      -13.79907       69.68981
N         11.46056      -15.21576       70.03210
H         13.13242      -10.35034       66.06436
H         10.39962       -9.79527       66.72582
H         12.47094      -11.55088       68.17949
H         11.40480      -12.02426       66.80477
H          9.37884      -11.52096       68.21249
H         10.45059      -11.19389       69.62286
H         10.15898      -13.85332       68.06103
H          9.45940      -13.46263       69.67224
H         11.78266      -13.21592       70.61856
H         12.47254      -13.67866       69.01522
H         10.66902      -15.34867       70.70296
H         11.28851      -15.78217       69.16953
H         12.34323      -15.54842       70.48335
N         10.48013       -8.01588       68.61146
C         10.48925       -6.99348       69.65891
C          9.18598       -7.02889       70.47107
O          8.12938       -7.15022       69.86863
C         10.74984       -5.60518       69.04024
C          9.89715       -5.26767       67.84669
O          8.55844       -5.19295       67.95037
O         10.42840       -5.04611       66.76953
H          9.69209       -8.00443       67.94565
H         11.34872       -7.14362       70.33714
H         11.81291       -5.58574       68.70914
H         10.63441       -4.82564       69.82457
N          9.14985       -6.92960       71.83929
C         10.33588       -6.70135       72.65046
C         10.08942       -6.80937       74.14070
O          9.61954       -7.85047       74.57475
H          8.23347       -7.00317       72.31039
H         10.78000       -5.71563       72.38648
H         11.07163       -7.50088       72.43817
N         10.52404       -5.83850       75.00071
C         10.57433       -6.05509       76.44815
C          9.20301       -5.93916       77.07778
O          8.60774       -4.87221       77.00242
C         11.55461       -5.06880       77.11124
C         11.79040       -5.41982       78.55560
O         11.50004       -4.53374       79.52597
O         12.25698       -6.50878       78.85329
H         10.98136       -5.00196       74.60539
H         10.99686       -7.07151       76.61327
H         11.17167       -4.02818       77.02267
H         12.53341       -5.12274       76.58761
N          8.62607       -7.01402       77.69063
C          7.26865       -6.98148       78.21116
C          6.36485       -7.76347       77.29529
O          5.41986       -8.38489       77.75772
H          9.12497       -7.91672       77.70116
H          6.86825       -5.94632       78.23684
H          7.23972       -7.36430       79.25490
N          6.61549       -7.75571       75.95529
C          5.80119       -8.40664       74.94595
C          5.44376       -7.35779       73.89989
O          5.87621       -6.21786       74.02439
C          6.60106       -9.57328       74.31041
C          7.17972      -10.51321       75.37560
O          5.76140      -10.31556       73.46502
H          7.44231       -7.25550       75.60789
H          4.87522       -8.81785       75.40540
H          7.44734       -9.14357       73.72609
H          6.34536      -10.84153       72.85957
H          7.90158       -9.97288       76.02439
H          6.36960      -10.93744       76.00515
H          7.72998      -11.34243       74.88369
N          4.67049       -7.66138       72.82417
C          4.33996       -6.65295       71.82518
C          3.44790       -5.63236       72.50490
O          3.78408       -4.45572       72.52548
C          3.68299       -7.27660       70.55817
C          4.59395       -8.39771       69.97352
C          3.45650       -6.16763       69.50725
C          4.00554       -9.11085       68.75771
H          4.29589       -8.61187       72.73070
H          5.28386       -6.17245       71.47472
H          2.70333       -7.72251       70.83629
H          4.75732       -9.19039       70.72949
H          5.58844       -7.98315       69.70413
H          2.93993       -6.55818       68.60901
H          2.81962       -5.35529       69.91327
H          4.42977       -5.72768       69.19415
H          3.91456       -8.42717       67.89108
H          4.68265       -9.93990       68.46052
H          3.01137       -9.53770       69.00779
N          2.33273       -6.05531       73.16748
C          1.47896       -5.18616       73.96584
C          0.05667       -5.23722       73.43449
O         -0.23409       -6.01961       72.53789
C          1.54589       -5.63668       75.45620
C          2.97494       -5.56471       76.00463
O          0.72831       -4.82711       76.25937
H          2.10382       -7.06206       73.15262
H          1.82574       -4.13110       73.89416
H          1.19052       -6.69341       75.50955
H          0.55895       -5.32907       77.09970
H          3.64120       -6.23378       75.43611
H          3.36189       -4.52483       75.94828
H          2.99447       -5.89749       77.06394
N         -0.87975       -4.38802       73.93423
C         -2.26496       -4.34541       73.49524
C         -2.50943       -3.02340       72.79720
O         -2.95289       -3.04269       71.65764
C         -3.20582       -4.59594       74.69760
C         -4.67877       -4.62558       74.27366
O         -3.01695       -3.61864       75.68833
H         -0.58849       -3.70723       74.64938
H         -2.47039       -5.15792       72.76084
H         -2.94107       -5.60092       75.10617
H         -3.30016       -4.02332       76.54996
H         -4.99251       -3.64221       73.86516
H         -4.84181       -5.40686       73.50085
H         -5.31783       -4.86295       75.15037
N         -2.18378       -1.83799       73.39328
C         -2.34332       -0.54793       72.73326
C         -0.97871        0.04326       72.42623
O          0.02328       -0.47229       72.90470
C         -3.17371        0.38898       73.62867
C         -4.55607       -0.21575       73.94193
C         -5.42041        0.65860       74.86284
C         -4.83451        0.80790       76.27845
N         -5.74182        1.56420       77.14061
H         -1.76668       -1.84046       74.33542
H         -2.85990       -0.67952       71.75757
H         -3.30674        1.37253       73.12825
H         -2.60792        0.54579       74.57091
H         -4.44278       -1.21161       74.42271
H         -5.09924       -0.35731       72.98245
H         -6.41274        0.16455       74.95200
H         -5.56932        1.65877       74.40206
H         -3.85799        1.33490       76.24036
H         -4.67254       -0.20094       76.72043
H         -5.89390        2.52226       76.74991
H         -6.65798        1.06622       77.22321
H         -5.31824        1.64923       78.09294
N         -0.86280        1.08666       71.55330
C          0.43030        1.62166       71.12862
C          1.34268        0.51902       70.59147
O          2.43476        0.39344       71.12765
C          0.29960        2.74928       70.07428
C         -0.39085        4.00809       70.61643
C         -0.40795        5.08941       69.57160
O          0.23118        6.25391       69.79453
O         -0.99791        4.91846       68.51630
H         -1.72455        1.47177       71.13805
H          0.93543        2.06889       72.01535
H         -0.23399        2.39451       69.16976
H          1.32665        3.04630       69.76314
H          0.16989        4.37434       71.50381
H         -1.43429        3.78769       70.92308
N          1.02604       -0.33633       69.57301
C         -0.23044       -0.39639       68.85413
H         -0.97947        0.33198       69.19971
H         -0.04388       -0.22354       67.77422
H         -0.66975       -1.40803       68.98299
H          1.73606       -1.03164       69.29463
Ca        10.83934       -6.25079       63.50874
O          9.27073       -8.64690       63.11869
H          8.50768       -8.21285       62.66088
H          9.00273       -8.68690       64.07092
O          7.33884       -5.27185       64.71653
H          7.34838       -5.45370       63.74314
H          6.41157       -4.97980       64.90538

Ca 1.0



