%chk=apoCaM-CA-Ng.loop3.water6.frame472.chk
%nprocshared=20
%mem=10GB
%nosave
#b3lyp/svp scf=(tight,noincore,xqc) Test 
#IOP(5/87=12) Density=Current Pop=(MK,readradii) iop(6/33=2) iop(6/42=6)

apoCaM-CA-Ng.loop3.water6.frame472 

   0  1 
C         42.82465       32.68710      115.76863
C         41.81602       32.27740      116.79904
O         41.11232       33.12855      117.32218
H         43.84006       32.41275      116.12870
H         42.62609       32.16408      114.81089
H         42.79780       33.78436      115.60171
N         41.72446       30.96893      117.16527
C         40.87991       30.46747      118.24423
C         41.31735       31.09268      119.55900
O         40.51463       31.64649      120.29770
C         39.37135       30.62514      117.94122
C         38.92148       29.86637      116.71605
O         37.62267       29.89710      116.36341
O         39.70598       29.21029      116.04759
H         42.33931       30.28681      116.69381
H         41.07490       29.37566      118.35086
H         39.10947       31.69565      117.81756
H         38.79375       30.22557      118.80294
N         42.63066       30.99762      119.90322
C         43.20477       31.45472      121.16882
C         43.19858       32.96856      121.32688
O         43.58416       33.44107      122.38775
C         44.67356       30.97304      121.25914
C         44.77268       29.43855      121.21687
C         46.22259       28.96337      121.12050
C         46.25653       27.43599      120.97389
N         47.62512       26.94741      120.83202
H         43.24742       30.53312      119.22083
H         42.62424       31.00449      122.00361
H         45.14891       31.33178      122.19851
H         45.23417       31.40830      120.39969
H         44.25097       29.03800      120.32634
H         44.28255       29.01311      122.11885
H         46.78883       29.28158      122.02233
H         46.69548       29.41771      120.22087
H         45.67460       27.14032      120.07095
H         45.78302       26.96585      121.86393
H         47.60191       25.90810      120.71955
H         48.06983       27.36859      119.98398
H         48.18133       27.18790      121.68373
N         42.84769       33.79731      120.30664
C         42.96751       35.24767      120.39184
C         42.00978       35.83710      121.43328
O         41.09728       35.15496      121.87931
C         42.75967       35.80912      118.97065
C         42.95286       37.27556      118.81627
O         43.86037       37.76938      117.96024
O         42.16103       38.04224      119.32609
H         42.57195       33.38508      119.40678
H         44.01179       35.47689      120.69944
H         41.73198       35.55983      118.62218
H         43.47681       35.30502      118.28606
N         42.20837       37.10229      121.90406
C         41.37808       37.75136      122.90775
C         39.96350       37.97749      122.42609
O         39.02996       37.55007      123.08919
H         43.02169       37.63340      121.56154
H         41.81512       38.74931      123.13213
H         41.38712       37.15834      123.84804
N         39.73936       38.64573      121.26198
C         38.42059       38.94330      120.71873
C         38.08681       38.03347      119.54246
O         37.16102       38.34149      118.80649
C         38.37841       40.42673      120.28524
C         38.65082       41.37782      121.42276
N         37.83589       41.41902      122.50171
O         39.60885       42.13335      121.36098
H         40.55020       38.95651      120.71621
H         37.62284       38.77174      121.47243
H         37.37509       40.66782      119.87639
H         39.12856       40.58881      119.47792
H         37.01461       40.80109      122.56741
H         38.02246       42.07856      123.27148
N         38.72444       36.84377      119.35177
C         38.38471       35.93663      118.26764
C         38.76269       36.49730      116.91457
O         38.10374       36.17982      115.93538
H         39.45068       36.53534      120.01385
H         37.30338       35.67686      118.30530
H         38.95211       34.98996      118.40201
N         39.88093       37.26216      116.78190
C         40.41211       37.74785      115.51625
C         40.59811       39.29178      115.51403
O         40.76727       39.84659      116.78967
C         41.74873       37.03852      115.24447
C         42.48589       37.63606      114.06906
C         41.89851       37.69979      112.79379
C         43.77194       38.16787      114.25879
C         42.58278       38.30375      111.73397
C         44.45439       38.76462      113.19915
C         43.85939       38.84096      111.93333
O         44.50294       39.43003      110.90621
H         40.42484       37.47455      117.62712
H         39.75062       37.47109      114.66661
H         41.55412       35.95851      115.06755
H         42.38202       37.11063      116.14342
H         40.90718       37.30085      112.62167
H         44.24726       38.13050      115.23052
H         42.11611       38.36257      110.75911
H         45.44191       39.17462      113.36837
H         45.38255       39.82073      111.00988
N         39.51629       39.96053      114.79753
C         39.62537       41.43360      114.83321
C         38.55720       41.94974      115.77679
O         38.80544       42.95363      116.42828
C         39.60576       42.05607      113.39438
C         40.93389       41.68997      112.66781
C         39.43593       43.58658      113.42069
C         40.98547       42.09411      111.19419
H         39.46810       39.58879      113.82141
H         40.59673       41.75935      115.27776
H         38.73609       41.63454      112.84328
H         41.09851       40.59567      112.69976
H         41.78705       42.17085      113.19475
H         39.38361       44.00829      112.39828
H         38.47555       43.85406      113.88194
H         40.26026       44.07566      113.98097
H         40.16753       41.59570      110.63394
H         40.91490       43.19163      111.06089
H         41.95873       41.77385      110.76490
N         37.37334       41.28871      115.97018
C         36.37367       41.76941      116.92084
C         35.81311       43.12891      116.52866
O         35.17186       43.75380      117.35993
C         35.23052       40.75928      117.09056
O         34.54843       40.59233      115.87825
H         37.19076       40.41478      115.45424
H         36.88309       41.87499      117.90424
H         34.52899       41.12681      117.87309
H         35.65557       39.78656      117.41463
H         33.82541       39.93754      116.05941
N         36.04074       43.65771      115.28868
C         35.65583       44.99904      114.87498
C         36.30538       46.02512      115.79693
O         35.61874       46.87009      116.35673
C         34.12719       45.11395      114.78672
H         36.54216       43.09765      114.58929
H         36.05507       45.16172      113.84834
H         33.83858       46.10838      114.38846
H         33.73537       44.33386      114.09764
H         33.64912       44.97345      115.77779
N         37.64293       45.94038      116.05313
C         38.35564       46.75532      117.02725
C         39.65601       47.27217      116.43858
O         40.44271       46.47634      115.94100
C         38.65931       45.89880      118.25551
H         38.17212       45.18208      115.60708
H         37.72230       47.59965      117.37837
H         39.29712       45.03008      117.99200
H         39.17911       46.51004      119.02346
H         37.70730       45.52400      118.68999
N         39.95147       48.60175      116.47498
C         41.14691       49.20467      115.89162
C         41.15817       48.96485      114.39317
O         42.13508       48.45946      113.85620
C         42.46182       48.73825      116.57307
C         42.51247       49.07479      118.06903
C         43.86003       48.73734      118.64716
O         44.27099       47.58777      118.63066
O         44.62368       49.70814      119.18550
H         39.27334       49.24217      116.91555
H         41.07741       50.30565      116.03807
H         43.30675       49.26851      116.07806
H         42.61736       47.64676      116.43340
H         41.72654       48.51136      118.61578
H         42.33205       50.16289      118.20537
N         40.06506       49.30767      113.65682
C         39.97422       49.12226      112.22407
H         39.75819       50.09937      111.74463
H         40.91143       48.71731      111.78822
H         39.14675       48.41773      111.99849
H         39.24439       49.70838      114.13555
Ca        42.97583       39.67871      117.24869
O         42.66711       40.78062      120.86878
H         42.69496       41.11745      121.79921
H         41.94978       41.30570      120.43508
O         46.01122       40.12636      117.23814
H         46.78881       40.41854      117.77671
H         46.10340       39.14233      117.18294
O         45.16109       39.27423      120.29104
H         45.66143       38.59846      119.76902
H         45.08703       38.88049      121.19605
O         41.39207       42.65053      118.10178
H         41.58328       43.61923      118.17250
H         40.51788       42.53781      118.55221
O         43.45166       41.82774      115.24388
H         44.20100       42.46916      115.32027
H         43.88481       40.97131      115.00355
O         44.45653       42.83798      118.48892
H         45.37312       42.69770      118.14280
H         44.21247       43.74588      118.17809

Ca 1.0



