%chk=apoCaM-CA-Ng.loop1.water3.frame38.chk
%nprocshared=20
%mem=10GB
%nosave
#b3lyp/svp scf=(tight,noincore,xqc) Test 
#IOP(5/87=12) Density=Current Pop=(MK,readradii) iop(6/33=2) iop(6/42=6)

apoCaM-CA-Ng.loop1.water3.frame38 

   0  1 
C         77.62067       62.85788       68.43540
C         76.85400       62.27550       69.58811
O         76.38844       63.02107       70.43767
H         78.65179       62.44550       68.42519
H         77.11724       62.59446       67.48107
H         77.67963       63.96441       68.51352
N         76.69161       60.92678       69.67392
C         75.96586       60.25417       70.74906
C         76.87594       59.31631       71.53849
O         76.36560       58.53735       72.33081
C         74.75478       59.48127       70.17362
C         75.12637       58.30751       69.30698
O         75.71645       58.47205       68.25218
O         74.78415       57.06191       69.68930
H         77.11823       60.34689       68.93610
H         75.54364       60.99374       71.46149
H         74.10130       60.17236       69.59891
H         74.15700       59.09742       71.02957
N         78.23226       59.34831       71.39504
C         79.14124       58.39719       72.02438
C         79.92077       59.07670       73.15155
O         80.40785       60.17270       72.91100
C         80.14367       57.89092       70.95781
C         79.53706       57.22839       69.70375
C         78.72301       55.96089       70.00518
C         78.43231       55.12072       68.74442
N         77.60619       55.81921       67.76086
H         78.65995       60.07742       70.80491
H         78.58416       57.53166       72.41693
H         80.84308       57.16885       71.42701
H         80.75375       58.75171       70.60420
H         80.39898       56.94506       69.05993
H         78.91439       57.95796       69.14341
H         77.77791       56.22508       70.52654
H         79.32120       55.31615       70.67728
H         77.90916       54.18913       69.05591
H         79.39456       54.82584       68.27019
H         77.44713       55.18533       66.94419
H         76.68122       56.05574       68.18002
H         78.08353       56.68160       67.41503
N         80.17042       58.51855       74.38515
C         79.79845       57.18063       74.84947
C         80.33849       56.12635       73.90261
O         79.55825       55.44021       73.25846
C         78.31323       57.08857       75.25712
C         78.07788       57.99595       76.45268
O         77.07924       58.89253       76.46949
O         78.78695       57.89683       77.44284
H         80.75184       59.06993       75.03530
H         80.29749       56.96032       75.81419
H         78.10972       56.04586       75.58706
H         77.62276       57.32512       74.42537
N         81.68453       55.91627       73.75971
C         82.70910       56.51793       74.60870
C         83.69468       57.35520       73.82835
O         83.24358       58.22125       73.09334
H         81.99948       55.22897       73.06154
H         83.17577       55.68388       75.15581
H         82.29888       57.19297       75.37157
N         85.05340       57.21531       73.92123
C         85.75856       56.28508       74.80266
C         86.17084       55.03220       74.05278
O         86.74489       54.15156       74.67836
C         87.00859       56.95557       75.41780
C         86.71979       58.15755       76.27850
O         87.74505       58.80083       76.86900
O         85.57901       58.55223       76.46227
H         85.63397       57.81110       73.30938
H         85.12975       55.97388       75.65673
H         87.69949       57.25876       74.60185
H         87.53514       56.21607       76.06104
N         85.91155       54.86831       72.72172
C         86.29200       53.68323       71.97941
C         85.17664       52.67005       71.98653
O         84.65063       52.36444       70.92541
H         85.44683       55.61452       72.18570
H         87.23260       53.24401       72.37561
H         86.50117       53.98733       70.92997
N         84.76946       52.08750       73.15111
C         83.70800       51.08512       73.20157
C         82.37562       51.66033       72.75299
O         82.26962       52.86820       72.59356
C         83.57439       50.49183       74.63549
C         83.07859       51.52121       75.66664
O         84.81252       49.98857       75.06688
H         85.26003       52.33747       74.01886
H         83.99462       50.26305       72.50825
H         82.82770       49.66500       74.63261
H         85.00264       49.18145       74.52194
H         83.76830       52.38673       75.74686
H         82.06927       51.89775       75.39612
H         83.00309       51.04457       76.66678
N         81.30334       50.84764       72.54527
C         79.96836       51.35885       72.25078
C         78.90911       50.56720       72.98742
O         78.98435       49.34418       73.01588
C         79.61862       51.46201       70.73233
C         79.45599       50.12525       69.95956
C         80.56162       52.42527       69.99744
C         80.74381       49.36093       69.65612
H         81.43314       49.83128       72.66496
H         79.89765       52.40627       72.62500
H         78.60870       51.93445       70.70420
H         78.98155       50.35584       68.98003
H         78.75447       49.45891       70.50071
H         80.21847       52.56964       68.95146
H         80.56779       53.41260       70.49996
H         81.60224       52.04422       69.98548
H         80.48839       48.44220       69.08709
H         81.41977       49.96878       69.02028
H         81.27069       49.05769       70.57696
N         77.81743       51.20471       73.49447
C         76.66419       50.49837       74.04290
C         75.45561       50.60415       73.11680
O         74.53113       49.82536       73.28714
C         76.33680       50.98197       75.47429
C         75.96642       52.47460       75.53236
O         77.44566       50.74199       76.30113
H         77.77877       52.23170       73.41142
H         76.89294       49.41048       74.09855
H         75.46761       50.38408       75.83627
H         77.11502       50.75498       77.23735
H         75.09399       52.69143       74.88086
H         75.69934       52.75443       76.57266
H         76.81730       53.11569       75.22206
N         75.40275       51.53234       72.10921
C         74.33926       51.66722       71.11853
C         72.97482       51.93775       71.73964
O         72.79682       51.79256       72.94289
C         74.28254       50.42333       70.18348
C         75.66042       50.05955       69.62106
O         73.41619       50.67638       69.10658
H         76.17148       52.20354       72.00016
H         74.60349       52.55159       70.49304
H         73.90963       49.55427       70.77465
H         73.05146       49.80390       68.80542
H         76.08944       50.90930       69.04962
H         76.35266       49.78300       70.44242
H         75.56909       49.18110       68.94711
N         71.94681       52.32816       70.94142
C         70.56238       52.43230       71.38011
C         70.04688       53.86453       71.36654
O         68.91875       54.06879       71.78656
C         69.69369       51.45315       70.54069
C         69.73929       51.67889       69.01079
C         68.99654       50.56642       68.25476
C         69.14242       50.73721       66.73298
N         68.49446       49.63995       66.01394
H         72.16334       52.54386       69.95903
H         70.47474       52.10401       72.43997
H         68.63859       51.49003       70.88860
H         70.07901       50.42865       70.74188
H         70.78464       51.63872       68.65061
H         69.31237       52.67329       68.75790
H         67.92159       50.56792       68.53566
H         69.43888       49.58500       68.53705
H         70.22271       50.75156       66.46219
H         68.69151       51.70435       66.41943
H         67.47336       49.61450       66.23673
H         68.61469       49.78568       64.98521
H         68.93635       48.72828       66.27554
N         70.81348       54.90845       70.92608
C         70.36612       56.29650       70.94762
C         70.11443       56.75249       69.53506
O         71.01023       56.68110       68.70533
C         71.42457       57.20830       71.59265
C         71.59872       56.93709       73.08503
C         72.64712       57.84037       73.65412
O         72.52231       59.05485       73.61283
O         73.72233       57.29749       74.24082
H         71.74691       54.72774       70.53379
H         69.42212       56.40940       71.52480
H         71.10195       58.26775       71.47684
H         72.39796       57.08148       71.06894
H         71.90427       55.88057       73.24642
H         70.64079       57.11666       73.61914
N         68.89531       57.25288       69.19664
C         68.59610       57.70243       67.85861
H         67.55822       58.09551       67.82025
H         69.29743       58.51212       67.56612
H         68.68585       56.85208       67.15084
H         68.15610       57.32849       69.91174
Ca        75.32042       58.55904       75.15021
O         77.40535       61.35976       74.88205
H         77.32739       62.34545       74.93113
H         78.28526       61.15979       75.28971
O         74.45837       61.90008       73.76686
H         75.14129       62.54061       73.44425
H         73.63965       62.44586       73.87513
O         73.76949       58.74768       77.62491
H         74.16837       57.94778       78.05115
H         72.83421       58.76468       77.94803

Ca 1.0



