%chk=apoCaM-CA-Ng.loop3.water3.frame747.chk
%nprocshared=20
%mem=10GB
%nosave
#b3lyp/svp scf=(tight,noincore,xqc) Test 
#IOP(5/87=12) Density=Current Pop=(MK,readradii) iop(6/33=2) iop(6/42=6)

apoCaM-CA-Ng.loop3.water3.frame747 

   0  1 
C        101.86150      110.90756      -14.17691
C        102.72493      110.71347      -15.38983
O        102.54227      111.42818      -16.36498
H        100.79795      110.74075      -14.44853
H        102.13122      110.19634      -13.36751
H        101.98272      111.94159      -13.79299
N        103.69267      109.75406      -15.40198
C        104.55218      109.50180      -16.55482
C        103.68105      109.07260      -17.72493
O        102.96898      108.08539      -17.59877
C        105.59461      108.42486      -16.18007
C        106.72676      108.21589      -17.15153
O        107.57813      107.38519      -16.87876
O        106.86287      108.92608      -18.28796
H        103.82024      109.18233      -14.55192
H        105.10428      110.43547      -16.78800
H        105.07466      107.45793      -16.00517
H        106.07206      108.72463      -15.22597
N        103.64714      109.80229      -18.87611
C        102.74691      109.49622      -19.98791
C        102.95667      108.09017      -20.50842
O        101.99117      107.34016      -20.55868
C        102.91203      110.50732      -21.14428
C        102.36967      111.89887      -20.77640
C        102.49851      112.87331      -21.95781
C        101.77945      114.21376      -21.71965
N        102.31974      114.95510      -20.57978
H        104.26968      110.62142      -18.95105
H        101.69159      109.56478      -19.63673
H        102.31321      110.14884      -22.01183
H        103.97727      110.56191      -21.45825
H        102.91140      112.30063      -19.89715
H        101.29311      111.79314      -20.51677
H        102.02941      112.41387      -22.85561
H        103.57352      113.04991      -22.18041
H        100.69270      114.03149      -21.56289
H        101.88951      114.83300      -22.63769
H        102.14543      114.43872      -19.68873
H        103.34390      115.12100      -20.70818
H        101.83187      115.87810      -20.51816
N        104.18600      107.65852      -20.89945
C        104.41993      106.32284      -21.44237
C        105.17302      105.42162      -20.47482
O        105.46318      104.29330      -20.85010
C        105.07727      106.41192      -22.84046
C        106.43945      107.05218      -22.90567
O        107.04691      107.53195      -21.80898
O        107.00433      107.14300      -23.98338
H        104.98351      108.30003      -20.78428
H        103.45311      105.79894      -21.60909
H        104.39811      106.98879      -23.50499
H        105.16364      105.38411      -23.25555
N        105.44691      105.79733      -19.18854
C        106.05529      104.88563      -18.23013
C        107.49191      104.53386      -18.55223
O        108.02530      103.65388      -17.89195
H        105.15012      106.72044      -18.84674
H        105.44574      103.95620      -18.20307
H        106.02876      105.32410      -17.21083
N        108.18804      105.17847      -19.53262
C        109.53547      104.81911      -19.94172
C        110.50325      105.97525      -19.55920
O        110.41547      107.08374      -20.41251
C        109.44530      104.45299      -21.44868
C        110.67748      103.87181      -22.09360
N        110.67688      102.59076      -22.53693
O        111.66578      104.56749      -22.26487
H        107.73931      105.94669      -20.04062
H        109.86406      103.91807      -19.37872
H        109.11647      105.33572      -22.03952
H        108.63478      103.69465      -21.53116
H        109.84760      101.98842      -22.42370
H        111.50841      102.19435      -22.99858
N        111.88254      105.51747      -19.31149
C        112.93066      106.54540      -19.24034
C        112.69017      107.59620      -18.17936
O        112.39412      107.24827      -17.04464
H        112.18126      104.79237      -19.99574
H        113.09942      107.00330      -20.24020
H        113.87192      106.02439      -18.96146
N        112.89498      108.91278      -18.47101
C        112.75875      109.99435      -17.49266
C        111.30880      110.20473      -17.08357
O        110.43877      109.48931      -17.54793
C        113.35387      111.30760      -18.06950
C        114.86111      111.25928      -18.17330
C        115.63790      111.09314      -17.01067
C        115.50861      111.41830      -19.40880
C        117.03191      111.08094      -17.08301
C        116.90731      111.40901      -19.47826
C        117.67265      111.24126      -18.31809
O        119.01861      111.24177      -18.39988
H        113.21973      109.15121      -19.42139
H        113.31977      109.73145      -16.57124
H        113.14269      112.17013      -17.40758
H        112.87755      111.52896      -19.04952
H        115.16700      110.98266      -16.04200
H        114.93445      111.55872      -20.31563
H        117.61150      110.95415      -16.17676
H        117.39783      111.53887      -20.43442
H        119.58092      111.13694      -17.61858
N        111.00335      111.19196      -16.17997
C        109.67273      111.51809      -15.67051
C        108.74638      111.96572      -16.79768
O        108.51584      111.18411      -17.71149
C        109.07221      110.34098      -14.84347
C        107.76088      110.74415      -14.11139
C        110.09266      109.76549      -13.84034
C        107.91303      111.82991      -13.03553
H        111.77406      111.75450      -15.79569
H        109.81246      112.36856      -14.97035
H        108.82051      109.51350      -15.54021
H        107.34659      109.84303      -13.61056
H        107.01251      111.08971      -14.85601
H        110.44990      110.53882      -13.13029
H        109.63824      108.92732      -13.26989
H        110.97784      109.35611      -14.37064
H        108.27045      112.78776      -13.46179
H        106.92529      112.02181      -12.56748
H        108.60462      111.50508      -12.23117
N        108.14053      113.19122      -16.79184
C        107.23631      113.62411      -17.85960
C        107.61131      114.97278      -18.48794
O        107.03155      115.31321      -19.50580
C        105.80410      113.66066      -17.31166
O        104.88892      113.90610      -18.34490
H        108.27670      113.80161      -15.97007
H        107.25319      112.87653      -18.68332
H        105.71183      114.44387      -16.52814
H        105.59460      112.66906      -16.85151
H        104.02135      113.52493      -18.04986
N        108.53563      115.81090      -17.92647
C        108.89142      117.11141      -18.49980
C        109.67107      116.93209      -19.79419
O        110.54925      116.08037      -19.80129
C        109.77031      117.88247      -17.51449
H        108.98128      115.54312      -17.04167
H        107.96907      117.70848      -18.63032
H        110.69914      117.32217      -17.28043
H        110.04944      118.85756      -17.95742
H        109.20729      118.06563      -16.57380
N        109.47586      117.66237      -20.93636
C        108.56813      118.79152      -21.13347
C        109.33615      119.98361      -21.70766
O        110.04846      119.78300      -22.68234
C        107.49356      118.38699      -22.14339
H        110.04553      117.39190      -21.75472
H        108.04724      119.07428      -20.20764
H        107.94975      118.09569      -23.11447
H        106.90998      117.52877      -21.75009
H        106.79833      119.23733      -22.31689
N        109.22046      121.26890      -21.25429
C        108.34901      121.71226      -20.17372
C        109.01875      121.47777      -18.84029
O        108.44500      120.80140      -17.99880
C        107.99104      123.20966      -20.32588
C        107.18623      123.47063      -21.61132
C        106.73815      124.90117      -21.69568
O        107.55783      125.80460      -21.73783
O        105.42344      125.19248      -21.73604
H        109.73597      121.99548      -21.77781
H        107.37580      121.17604      -20.22009
H        108.90778      123.84001      -20.31936
H        107.35851      123.50598      -19.45900
H        106.28598      122.81794      -21.61582
H        107.79632      123.23076      -22.50792
N        110.23759      122.02540      -18.57286
C        110.90973      121.84181      -17.30485
H        111.88580      122.37213      -17.31402
H        110.28812      122.25309      -16.48188
H        111.10052      120.76474      -17.12293
H        110.70918      122.59284      -19.29345
Ca       108.60468      108.23048      -19.57332
O        110.15170      111.42856      -20.16988
H        110.86431      111.40733      -20.85655
H        110.36497      112.22032      -19.61466
O        109.78147      109.21534      -22.40162
H        109.52868      108.33918      -22.78712
H        109.69282      109.85311      -23.15323
O        106.82421      110.92217      -20.84575
H        106.60027      110.55100      -21.73595
H        107.08231      111.86079      -21.02685

Ca 1.0



