%chk=apoCaM-CA-Ng.loop1.water3.frame719.chk
%nprocshared=20
%mem=10GB
%nosave
#b3lyp/svp scf=(tight,noincore,xqc) Test 
#IOP(5/87=12) Density=Current Pop=(MK,readradii) iop(6/33=2) iop(6/42=6)

apoCaM-CA-Ng.loop1.water3.frame719 

   0  1 
C         60.91161      114.90541       16.93856
C         62.27295      115.16071       17.51845
O         62.83472      116.22667       17.30807
H         60.19739      115.70289       17.22459
H         60.99999      114.84213       15.83440
H         60.50589      113.93571       17.30027
N         62.87209      114.18072       18.24408
C         64.22049      114.26075       18.79089
C         65.27911      114.50480       17.73129
O         65.15561      114.06216       16.59833
C         64.57737      113.05169       19.68538
C         64.17883      111.67142       19.20025
O         63.59242      111.45861       18.00075
O         64.36014      110.72181       19.94415
H         62.32571      113.32692       18.39680
H         64.25136      115.14681       19.46672
H         64.05543      113.20984       20.65244
H         65.67090      113.06493       19.89789
N         66.31204      115.33188       18.05884
C         67.27708      115.88261       17.11816
C         68.18419      114.84463       16.48830
O         68.70653      115.09873       15.41086
C         68.11107      116.95744       17.84281
C         68.70486      117.97211       16.87080
C         69.50913      119.03332       17.62237
C         70.12523      120.06004       16.66231
N         71.14211      120.84466       17.36176
H         66.33951      115.67824       19.02884
H         66.67319      116.36061       16.31478
H         68.89057      116.46393       18.47128
H         67.44961      117.53657       18.52396
H         67.87193      118.45354       16.31257
H         69.37565      117.44938       16.16027
H         70.32448      118.50368       18.15699
H         68.88195      119.56419       18.37616
H         69.33651      120.72494       16.23656
H         70.61343      119.53208       15.81476
H         71.88754      120.19559       17.70596
H         71.58217      121.52813       16.70514
H         70.72460      121.35411       18.17367
N         68.41930      113.64786       17.09429
C         69.18593      112.58865       16.43876
C         68.52333      112.19481       15.12183
O         67.35061      112.49152       14.93708
C         69.33571      111.34442       17.35403
C         68.07077      110.98706       18.07577
O         68.08391      110.83264       19.28674
O         66.89633      111.07475       17.43909
H         68.02071      113.49033       18.03077
H         70.19262      112.98778       16.20891
H         70.10950      111.55292       18.12023
H         69.66083      110.46130       16.77554
N         69.18775      111.53628       14.12810
C         70.59596      111.16083       14.14022
C         71.53446      112.34271       14.10172
O         71.21058      113.35138       13.49077
H         68.65126      111.28605       13.28255
H         70.80302      110.57827       13.22233
H         70.83599      110.49547       14.98883
N         72.73761      112.27618       14.74087
C         73.67992      113.38605       14.75397
C         74.43566      113.45215       13.44643
O         75.03026      112.46089       13.04065
C         74.65291      113.26872       15.94360
C         75.38093      114.55647       16.25973
O         75.30289      115.53485       15.53191
O         76.07098      114.65006       17.41135
H         72.97237      111.41953       15.26652
H         73.10179      114.31742       14.94458
H         75.38479      112.44370       15.79564
H         74.04028      113.04382       16.83971
N         74.47838      114.61952       12.75003
C         75.19171      114.78103       11.49419
C         74.42075      114.21942       10.31228
O         74.88179      114.34486        9.18664
H         74.00422      115.44458       13.14342
H         76.19607      114.30963       11.56942
H         75.34308      115.86778       11.33199
N         73.21597      113.61897       10.50584
C         72.38974      112.97716        9.49956
C         71.95264      111.61826       10.05057
O         72.35709      111.23979       11.14269
C         71.16802      113.88475        9.17775
C         70.33120      114.18509       10.41764
O         71.60602      115.10672        8.63703
H         72.83140      113.58975       11.45324
H         72.95371      112.81973        8.55044
H         70.48725      113.38547        8.44791
H         71.67278      114.99090        7.65274
H         69.95077      113.24354       10.86495
H         70.94266      114.73078       11.16452
H         69.47183      114.82730       10.14113
N         71.11210      110.82917        9.33924
C         70.67683      109.50119        9.77694
C         71.91060      108.63880        9.97533
O         72.00169      107.91666       10.95913
C         69.68905      108.91157        8.71812
C         68.26887      109.53912        8.83958
C         69.53143      107.38564        8.84307
C         68.19571      111.05496        8.65722
H         70.82042      111.17061        8.41402
H         70.13739      109.54396       10.75015
H         70.09813      109.09457        7.69800
H         67.83628      109.28821        9.83516
H         67.61698      109.08455        8.06348
H         69.10661      107.10971        9.83002
H         68.86288      107.01420        8.03657
H         70.50466      106.86744        8.71124
H         68.68703      111.57843        9.50325
H         68.66346      111.35109        7.69611
H         67.13457      111.37935        8.63785
N         72.92326      108.72599        9.07949
C         74.18656      108.01494        9.18220
C         74.68609      107.75315        7.76661
O         74.37213      108.52057        6.86585
C         75.14955      108.78803       10.12031
C         76.48360      108.05467       10.36086
O         75.34328      110.09431        9.62679
H         72.81288      109.41148        8.31964
H         73.99336      107.01901        9.64182
H         74.64771      108.85234       11.11277
H         76.21485      110.44271        9.94958
H         76.29687      107.02260       10.72401
H         77.10848      108.01649        9.44568
H         77.05514      108.59440       11.14871
N         75.32960      106.59128        7.47549
C         75.59061      106.13740        6.10318
C         75.45621      104.61492        5.91255
O         75.10397      104.21593        4.81101
C         76.94416      106.64713        5.54363
C         78.10329      106.44290        6.52241
O         76.88843      107.99155        5.13311
H         75.55217      105.98541        8.27193
H         74.77718      106.53365        5.44940
H         77.15158      106.05978        4.62430
H         76.49535      108.53177        5.85978
H         79.06107      106.66305        6.00894
H         78.00413      107.13594        7.38550
H         78.12755      105.39936        6.89912
N         75.73031      103.71001        6.89749
C         75.55168      102.25867        6.76880
C         75.17125      101.66034        8.10721
O         75.73936      102.02686        9.12783
C         76.81272      101.52318        6.24417
C         76.81726      101.43797        4.70968
C         77.95316      100.60107        4.08801
C         79.37060      101.04246        4.48276
N         80.36253      100.45518        3.57527
H         76.05629      104.05577        7.80569
H         74.69760      102.03337        6.09007
H         76.78591      100.46642        6.59211
H         77.72949      101.99457        6.66002
H         76.83972      102.45672        4.28043
H         75.86679      100.94957        4.38684
H         77.83241      100.71315        2.98827
H         77.84129       99.52206        4.33435
H         79.57669      100.72197        5.53018
H         79.45432      102.14833        4.43030
H         80.12853      100.70424        2.58568
H         81.30972      100.84398        3.78715
H         80.38730       99.41451        3.67270
N         74.25353      100.65184        8.14975
C         73.82884      100.02288        9.39017
C         73.12862      101.05249       10.27310
O         73.67554      101.33495       11.32956
C         72.96473       98.77006        9.11646
C         73.79117       97.53908        8.71441
C         72.86072       96.38779        8.45650
O         72.38948       95.66553        9.49171
O         72.33810       96.26754        7.35996
H         73.85421      100.31485        7.26042
H         74.72850       99.67147        9.94854
H         72.24252       98.97636        8.30190
H         72.41115       98.49659       10.03976
H         74.48700       97.26396        9.53987
H         74.40828       97.73315        7.81063
N         71.96008      101.69224        9.96731
C         71.13389      101.45462        8.80335
H         70.23745      102.11020        8.85533
H         71.67927      101.67890        7.86398
H         70.75008      100.41746        8.80802
H         71.61757      102.40066       10.63424
Ca        64.99625      111.23842       16.30088
O         64.74424      108.63136       16.98455
H         64.63181      107.91411       16.31290
H         64.62249      108.19288       17.86210
O         64.38166      112.30031       13.46678
H         63.65115      112.67726       12.91520
H         65.21232      112.58990       13.01234
O         66.02612      109.51475       14.25139
H         66.31414      109.95988       13.41578
H         66.29497      108.56882       14.14200

Ca 1.0



