%chk=apoCaM-CA-Ng.loop2.water3.frame1036.chk
%nprocshared=20
%mem=10GB
%nosave
#b3lyp/svp scf=(tight,noincore,xqc) Test 
#IOP(5/87=12) Density=Current Pop=(MK,readradii) iop(6/33=2) iop(6/42=6)

apoCaM-CA-Ng.loop2.water3.frame1036 

   -2  1 
C          6.39745       49.19660       67.32356
C          5.66639       48.01883       66.74293
O          6.31591       47.18389       66.13071
H          7.45464       49.19449       66.98175
H          5.94013       50.15420       67.01251
H          6.39111       49.11929       68.43111
N          4.32641       47.82428       66.91047
C          3.44072       48.75225       67.61329
C          3.25692       50.09428       66.90793
O          3.63847       50.25680       65.75856
C          2.07002       48.09354       67.92707
C          1.31778       47.45629       66.77781
O          0.28499       46.85270       67.02190
O          1.81671       47.40527       65.52645
H          3.94140       46.93743       66.55297
H          3.90883       48.97541       68.59607
H          1.40441       48.82896       68.42809
H          2.26533       47.27567       68.65286
N          2.69997       51.12376       67.61666
C          2.45263       52.49264       67.16468
C          1.30280       52.63995       66.17959
O          0.93166       53.77952       65.93567
C          3.72448       53.16394       66.62081
H          2.46700       50.93933       68.60417
H          2.14093       53.06446       68.06882
H          3.53692       54.24366       66.42970
H          4.55216       53.08278       67.35549
H          4.04323       52.70625       65.66140
N          0.67536       51.57361       65.59378
C         -0.41185       51.71558       64.61684
C         -1.01967       50.36607       64.20166
O         -0.68136       49.33631       64.76550
C          0.04436       52.55020       63.38185
C          1.12474       52.01937       62.46684
O          1.44431       52.72302       61.52221
O          1.74596       50.82638       62.59001
H          0.98166       50.63206       65.85400
H         -1.23592       52.29005       65.09605
H          0.37437       53.55204       63.71171
H         -0.83828       52.75971       62.74605
N         -1.95881       50.30799       63.21539
C         -2.54740       49.07770       62.70440
C         -1.55053       48.14917       62.02801
O         -0.34837       48.33794       62.14231
H         -2.29046       51.18179       62.78650
H         -3.30356       49.36294       61.94292
H         -3.06973       48.52720       63.51701
N         -2.01868       47.10483       61.28271
C         -1.17557       46.06737       60.68539
C         -0.06304       46.62941       59.82391
O         -0.24321       47.65509       59.18038
C         -2.04443       45.05157       59.90499
C         -1.27177       43.84700       59.41590
N         -1.32979       43.45802       58.11987
O         -0.61219       43.19316       60.21012
H         -3.04090       47.02729       61.16476
H         -0.70244       45.52074       61.52514
H         -2.55792       45.55748       59.05629
H         -2.82335       44.67276       60.59909
H         -1.90829       43.96648       57.43566
H         -0.81610       42.62109       57.80418
N          1.13586       45.97859       59.77227
C          2.26390       46.47786       59.01455
C          2.87877       47.68144       59.68978
O          2.57085       47.93628       60.84662
H          1.25400       45.08941       60.27961
H          1.93277       46.69950       57.97982
H          3.05331       45.69642       58.97247
N          3.78863       48.47829       59.06734
C          4.18771       48.35752       57.66382
C          4.82871       47.01333       57.34221
O          4.62948       46.51532       56.24306
C          5.16286       49.49806       57.27639
C          4.48719       50.87777       57.35199
O          6.28732       49.46398       58.11917
H          4.18787       49.24638       59.62946
H          3.28641       48.47120       57.01895
H          5.47812       49.33668       56.21855
H          7.00357       49.98305       57.66957
H          3.62214       50.91622       56.65591
H          4.12720       51.11143       58.37491
H          5.20732       51.66829       57.05296
N          5.60619       46.37453       58.25794
C          6.33137       45.12757       58.01024
C          5.76661       43.99440       58.85034
O          5.60389       44.18525       60.04678
C          7.84867       45.30986       58.32135
C          8.13226       45.91302       59.72940
C          8.49432       46.14921       57.21915
C          9.60050       45.85610       60.13768
H          5.68730       46.80264       59.18997
H          6.24193       44.82575       56.94751
H          8.31246       44.30329       58.27134
H          7.58879       45.34842       60.50876
H          7.79931       46.97213       59.77227
H          8.28541       45.67712       56.23541
H          8.09334       47.18460       57.21467
H          9.59518       46.17883       57.34052
H          9.70542       46.27889       61.15963
H          9.94605       44.80084       60.15479
H         10.23914       46.45021       59.45629
N          5.43266       42.76609       58.34470
C          5.49906       42.33087       56.94225
C          6.92368       42.23818       56.37312
O          7.88441       42.15493       57.12328
C          4.78979       40.95073       56.84744
C          4.60489       40.39260       55.46573
O          4.04674       41.05099       54.60339
O          4.97235       39.12365       55.20068
H          5.04417       42.09729       59.02979
H          4.91298       43.05982       56.34127
H          3.77277       41.06911       57.27654
H          5.33612       40.20467       57.46994
N          7.09725       42.22323       55.01506
C          8.36946       42.05112       54.30183
C          8.09537       42.10236       52.78923
O          7.27021       41.31064       52.34977
C          8.99350       40.65799       54.59697
C         10.26540       40.46030       53.79231
C         10.25418       39.66194       52.63241
C         11.45724       41.10596       54.16428
C         11.40688       39.53023       51.85166
C         12.61318       40.95747       53.38818
C         12.58564       40.17665       52.22937
H          6.24974       42.34712       54.44297
H          9.08840       42.83660       54.61414
H          8.24640       39.88558       54.30764
H          9.21177       40.49907       55.67395
H          9.34614       39.16537       52.31420
H         11.49050       41.72387       55.05234
H         11.38421       38.93300       50.94866
H         13.52927       41.45515       53.67903
H         13.47636       40.07457       51.62198
N          8.76270       42.91310       51.90458
C          9.84137       43.83993       52.21250
C          9.43527       45.03562       53.04771
O          8.29994       45.13623       53.48997
C         10.31581       44.32928       50.83368
C          9.99629       43.15333       49.94466
C          8.62203       42.76102       50.46884
H         10.66081       43.27184       52.70228
H          9.66534       45.16619       50.49088
H         11.37497       44.66791       50.80389
H         10.03107       43.37511       48.85653
H         10.71662       42.33581       50.17636
H          7.84571       43.47402       50.11395
H          8.38342       41.72494       50.14389
N         10.36629       45.99743       53.28119
C         10.16332       47.18474       54.09979
C         11.51343       47.84765       54.34366
O         11.68274       49.01319       54.01528
C          9.09073       48.13797       53.50152
C          9.30176       48.47190       52.01530
C          8.25995       49.44611       51.54036
O          7.45650       49.12018       50.68091
O          8.21571       50.69077       52.05393
H         11.30547       45.84801       52.87984
H          9.81448       46.89000       55.09933
H          9.06530       49.06909       54.11141
H          8.08904       47.66632       53.59522
H          9.22090       47.53266       51.42625
H         10.30289       48.91345       51.83530
N         12.55406       47.17323       54.92363
C         12.51804       45.79341       55.38634
H         12.78716       45.75411       56.46063
H         11.52957       45.30700       55.29030
H         13.25358       45.19424       54.80827
H         13.44942       47.67034       55.04306
Ca         1.80909       49.08421       64.02300
O          1.27127       45.81708       63.17817
H          0.54940       45.74501       63.85234
H          1.34791       44.90506       62.80159
O          4.35044       46.96364       63.73074
H          4.57044       46.44431       62.91825
H          5.18530       47.45178       63.93714
O          4.40582       49.84721       62.68158
H          4.30352       50.70809       62.20408
H          5.08676       49.35376       62.16083

Ca 1.0



