%chk=apoCaM-CA-Ng.loop3.water3.frame635.chk
%nprocshared=20
%mem=10GB
%nosave
#b3lyp/svp scf=(tight,noincore,xqc) Test 
#IOP(5/87=12) Density=Current Pop=(MK,readradii) iop(6/33=2) iop(6/42=6)

apoCaM-CA-Ng.loop3.water3.frame635 

   0  1 
C         -8.04013       45.82813      -10.93596
C         -7.91530       46.79037      -12.07720
O         -8.72212       46.74351      -12.99533
H         -8.19364       46.39753       -9.99413
H         -8.90622       45.14903      -11.08443
H         -7.11329       45.22471      -10.85032
N         -6.92851       47.72666      -12.06384
C         -6.80550       48.74950      -13.09047
C         -6.45962       48.13359      -14.43988
O         -5.42261       47.49629      -14.56123
C         -5.76688       49.80648      -12.66372
C         -5.81032       51.05493      -13.49824
O         -4.99691       52.08320      -13.19379
O         -6.58497       51.15709      -14.43530
H         -6.28537       47.74564      -11.25652
H         -7.77348       49.28176      -13.14084
H         -4.74540       49.37025      -12.66683
H         -6.00050       50.12834      -11.63277
N         -7.29631       48.30018      -15.50322
C         -7.03429       47.77065      -16.84080
C         -5.74586       48.33509      -17.40541
O         -4.89670       47.56835      -17.83805
C         -8.22482       48.11053      -17.77492
C         -8.05776       47.66647      -19.24615
C         -7.73121       46.17451      -19.45357
C         -8.74670       45.18772      -18.85244
N        -10.06973       45.30355      -19.46498
H         -8.16271       48.84106      -15.35358
H         -6.95490       46.66354      -16.78379
H         -8.39262       49.21010      -17.78092
H         -9.14107       47.64190      -17.35654
H         -7.23710       48.25613      -19.70994
H         -8.98687       47.92810      -19.79644
H         -6.73865       45.96107      -19.00644
H         -7.64185       45.98228      -20.54522
H         -8.82417       45.33218      -17.75372
H         -8.36271       44.15789      -19.02500
H        -10.48541       46.24224      -19.27313
H        -10.00300       45.14343      -20.49636
H        -10.69553       44.57479      -19.05177
N         -5.53824       49.67768      -17.41852
C         -4.36821       50.30961      -18.01960
C         -3.29350       50.67485      -17.00492
O         -2.24360       51.13403      -17.42938
C         -4.81438       51.53839      -18.85576
C         -5.49479       52.64093      -18.05756
O         -5.66572       52.51958      -16.72224
O         -5.88047       53.64625      -18.62916
H         -6.25216       50.26496      -16.97056
H         -3.87715       49.58969      -18.71248
H         -5.51734       51.18817      -19.64217
H         -3.92403       51.96860      -19.36524
N         -3.44774       50.48060      -15.66350
C         -2.40630       50.80786      -14.69770
C         -2.05426       52.29003      -14.62463
O         -1.08739       52.60410      -13.94565
H         -4.30713       50.04384      -15.31374
H         -1.49246       50.23915      -14.97824
H         -2.70962       50.46961      -13.68376
N         -2.75789       53.24984      -15.29989
C         -2.35358       54.64911      -15.38772
C         -3.43682       55.58914      -14.88420
O         -4.51565       55.59752      -15.45334
C         -2.10373       55.01613      -16.86961
C         -1.14596       54.09687      -17.57900
N          0.11996       53.92747      -17.13956
O         -1.52151       53.50339      -18.57935
H         -3.58607       52.97933      -15.82971
H         -1.41635       54.81881      -14.81515
H         -1.71906       56.05689      -16.92371
H         -3.07063       54.97926      -17.42376
H          0.45931       54.42172      -16.30308
H          0.76085       53.29471      -17.64087
N         -3.19513       56.48696      -13.89053
C         -4.14589       57.53470      -13.54367
C         -5.44547       57.00092      -12.98602
O         -5.41166       56.36280      -11.94339
H         -2.27605       56.48930      -13.42268
H         -4.33667       58.15406      -14.44685
H         -3.69143       58.19910      -12.77696
N         -6.64071       57.28820      -13.59355
C         -7.93409       56.90836      -13.02221
C         -8.21515       55.37606      -13.10546
O         -7.07604       54.59605      -12.93742
C         -9.10392       57.60549      -13.75687
C         -9.07316       59.11694      -13.75770
C         -9.15121       59.84809      -12.55939
C         -9.01974       59.81171      -14.97909
C         -9.18243       61.24849      -12.58745
C         -9.05126       61.20803      -15.00432
C         -9.13755       61.93220      -13.80805
O         -9.18605       63.28002      -13.82089
H         -6.62822       57.87679      -14.44010
H         -7.93131       57.24287      -11.96054
H        -10.06605       57.30307      -13.28856
H         -9.11411       57.23716      -14.80417
H         -9.20533       59.33800      -11.60613
H         -8.96750       59.27318      -15.91703
H         -9.25367       61.80401      -11.66051
H         -9.01878       61.72461      -15.95556
H         -9.17565       63.78730      -14.64568
N         -9.31663       54.99803      -12.18455
C         -9.48524       53.58907      -11.75595
C         -9.77856       52.67545      -12.93060
O         -9.01864       52.64331      -13.88578
C         -8.36749       53.02117      -10.80817
C         -8.79004       51.60322      -10.31528
C         -8.13434       53.96967       -9.61480
C         -7.83707       50.95030       -9.31285
H         -9.35657       55.62280      -11.34758
H        -10.39860       53.58871      -11.11873
H         -7.40475       52.90918      -11.34433
H         -8.85046       50.92572      -11.19402
H         -9.79545       51.64708       -9.84178
H         -9.06710       54.09434       -9.02379
H         -7.33307       53.58956       -8.95071
H         -7.78097       54.96232       -9.95874
H         -6.80757       50.90481       -9.71403
H         -7.82792       51.50176       -8.35144
H         -8.18709       49.91798       -9.09798
N        -10.85564       51.84118      -12.86925
C        -11.20781       50.88614      -13.91013
C        -12.64898       51.04515      -14.36684
O        -13.05015       50.28415      -15.23945
C        -10.99476       49.46515      -13.36655
O        -11.81782       49.23443      -12.25387
H        -11.42352       51.83607      -12.00836
H        -10.54821       51.01263      -14.79696
H         -9.93150       49.37176      -13.07499
H        -11.21253       48.71079      -14.15411
H        -11.38798       48.50903      -11.72990
N        -13.49712       51.97220      -13.82445
C        -14.90489       52.06773      -14.18904
C        -15.22078       53.42656      -14.79504
O        -14.41892       54.33818      -14.63592
C        -15.74699       51.82608      -12.93348
H        -13.15878       52.62739      -13.10468
H        -15.14039       51.28880      -14.94191
H        -16.82452       51.87970      -13.15548
H        -15.52455       50.82060      -12.51679
H        -15.51504       52.58907      -12.15875
N        -16.31948       53.65887      -15.57689
C        -17.28390       52.64559      -16.00048
C        -18.69699       53.22452      -16.03780
O        -18.87280       54.24476      -16.68884
C        -16.90114       52.17157      -17.40333
H        -16.38941       54.59012      -16.01720
H        -17.22447       51.75807      -15.35915
H        -16.91331       53.01361      -18.12734
H        -15.87870       51.73579      -17.38523
H        -17.60693       51.38501      -17.74479
N        -19.78134       52.65929      -15.42144
C        -19.76994       51.41914      -14.65377
C        -19.47157       51.67549      -13.18530
O        -19.34531       50.70728      -12.44862
C        -21.12748       50.68718      -14.78079
C        -21.51162       50.33717      -16.22907
C        -20.51214       49.42254      -16.87978
O        -19.93516       49.76937      -17.89788
O        -20.25369       48.21273      -16.34734
H        -20.68915       53.13987      -15.53153
H        -19.00895       50.72500      -15.05952
H        -21.92938       51.32747      -14.35123
H        -21.09489       49.74451      -14.19026
H        -21.61750       51.26912      -16.82528
H        -22.49816       49.82604      -16.22080
N        -19.34922       52.94006      -12.68091
C        -19.05987       53.21676      -11.28833
H        -18.12815       53.81624      -11.22110
H        -19.89615       53.80010      -10.84930
H        -18.92413       52.29262      -10.68871
H        -19.47226       53.75914      -13.29189
Ca        -6.49218       53.86852      -15.06060
O         -6.65553       56.23342      -17.25090
H         -6.46715       57.10318      -16.81835
H         -5.98622       56.17088      -17.97719
O         -8.52685       52.00688      -17.20413
H         -8.29610       51.91111      -18.16237
H         -9.49976       52.18644      -17.20003
O         -9.33284       54.81047      -16.12926
H        -10.10469       54.98740      -15.53494
H         -9.22941       55.64101      -16.65753

Ca 1.0



