%chk=apoCaM-CA-Ng.loop2.water2.frame918.chk
%nprocshared=20
%mem=10GB
%nosave
#b3lyp/svp scf=(tight,noincore,xqc) Test 
#IOP(5/87=12) Density=Current Pop=(MK,readradii) iop(6/33=2) iop(6/42=6)

apoCaM-CA-Ng.loop2.water2.frame918 

   -2  1 
C          9.52719       12.65379       14.89179
C         10.48308       11.55196       14.54867
O         11.38430       11.76646       13.75008
H          8.48973       12.34248       14.65068
H          9.59983       12.87570       15.97758
H          9.76932       13.57680       14.32306
N         10.34383       10.32785       15.12835
C         11.26875        9.22847       14.88123
C         12.64496        9.62512       15.38980
O         13.59432        9.61069       14.62005
C         10.75616        7.93858       15.56563
C         11.55381        6.70165       15.23318
O         11.17234        5.51678       15.74636
O         12.52178        6.74684       14.48982
H          9.55307       10.18215       15.77609
H         11.29769        9.02641       13.78600
H          9.71573        7.75126       15.22088
H         10.73358        8.07097       16.66831
N         12.79602       10.03790       16.68228
C         14.04980       10.51866       17.26032
C         13.80819       10.88037       18.72520
O         12.98168       11.75147       18.96248
C         14.55285       11.77355       16.52571
H         11.95760       10.02137       17.28403
H         14.81249        9.72490       17.15210
H         15.48949       12.14032       16.99673
H         14.77750       11.56478       15.46141
H         13.79115       12.58212       16.56693
N         14.41744       10.26731       19.78335
C         15.42462        9.21308       19.68515
C         15.50240        8.37749       20.96223
O         14.85509        8.69373       21.94982
C         16.80196        9.80620       19.29740
C         17.29007       10.83203       20.28576
O         16.65768       11.86064       20.46573
O         18.44558       10.63856       20.94944
H         14.10643       10.56543       20.72027
H         15.09001        8.48098       18.92054
H         16.74422       10.29872       18.30554
H         17.55019        8.98937       19.21775
N         16.21146        7.21399       20.95686
C         16.20687        6.25985       22.05428
C         17.60630        5.78789       22.36075
O         17.90016        4.64312       22.04665
H         16.69349        6.93397       20.08859
H         15.63115        5.37816       21.69643
H         15.68939        6.63143       22.96202
N         18.56103        6.56569       22.94079
C         18.35725        7.90743       23.47402
C         17.48302        7.81450       24.72084
O         17.82765        7.05505       25.61657
C         19.74804        8.50638       23.80797
C         19.76046        9.96235       24.18966
N         20.93750       10.56963       24.46350
O         18.72739       10.60587       24.23173
H         19.50256        6.14906       23.03046
H         17.90286        8.55311       22.69203
H         20.38137        8.42550       22.89739
H         20.22626        7.91466       24.61871
H         21.82263       10.04510       24.41619
H         20.97068       11.56566       24.71775
N         16.34652        8.55809       24.85474
C         15.45118        8.45623       26.00439
C         15.52723        9.65692       26.92832
O         14.81988        9.66630       27.92473
H         16.11170        9.24000       24.12064
H         15.70482        7.57167       26.62744
H         14.41236        8.31250       25.63724
N         16.40835       10.66993       26.70126
C         16.66151       11.77583       27.61882
C         16.38525       13.09272       26.90101
O         16.06713       13.06261       25.72396
C         18.14322       11.60275       28.08542
C         18.68748       12.63796       29.07407
O         18.31109       10.32010       28.63985
H         16.99396       10.63887       25.86162
H         15.98962       11.71948       28.50273
H         18.79508       11.65402       27.18449
H         17.70333       10.24783       29.42222
H         18.06190       12.67084       29.99088
H         19.72321       12.35619       29.36114
H         18.76082       13.63985       28.61128
N         16.48504       14.29270       27.54234
C         16.33835       15.57451       26.85789
C         17.70642       16.22372       26.84850
O         18.27005       16.43581       27.91282
C         15.25963       16.45852       27.54162
C         15.10808       17.79832       26.76863
C         13.92271       15.69410       27.60385
C         14.10682       18.77109       27.39287
H         16.71257       14.31207       28.54526
H         16.01905       15.42119       25.80495
H         15.58105       16.67473       28.58521
H         14.80037       17.59653       25.71938
H         16.08973       18.31871       26.74441
H         13.15142       16.27575       28.14622
H         13.55575       15.46246       26.58123
H         14.04168       14.74252       28.16343
H         14.39678       19.00532       28.43871
H         14.09821       19.71350       26.80516
H         13.07704       18.36135       27.37446
N         18.31923       16.51670       25.66447
C         19.70307       16.97075       25.57592
C         19.82450       18.37665       25.01526
O         20.94094       18.88099       24.98735
C         20.49093       15.98425       24.69449
C         20.33411       14.57074       25.17908
O         20.75710       14.21788       26.40775
O         19.79724       13.74147       24.46311
H         17.81046       16.35364       24.78454
H         20.16249       16.98935       26.58866
H         21.57029       16.24879       24.68075
H         20.10393       16.04865       23.65214
N         18.75033       19.07753       24.54673
C         18.85599       20.44963       24.06389
C         17.54359       20.89813       23.42157
O         16.54168       20.96152       24.12433
C         19.21379       21.39466       25.24129
C         19.09108       22.85662       24.87473
C         18.15111       23.66140       25.54367
C         19.87944       23.42328       23.85968
C         17.99506       25.00441       25.19691
C         19.71667       24.76922       23.51235
C         18.77434       25.55794       24.17934
H         17.82378       18.62692       24.52092
H         19.66723       20.49847       23.31086
H         20.23995       21.19227       25.61249
H         18.51294       21.17285       26.07653
H         17.53030       23.24771       26.32906
H         20.60935       22.82329       23.33200
H         17.26475       25.61283       25.71476
H         20.31761       25.20114       22.72302
H         18.64615       26.59772       23.90845
N         17.46914       21.27479       22.10437
C         16.28735       21.86720       21.49452
C         15.20113       20.85607       21.16190
O         14.18288       21.26471       20.62176
C         16.85243       22.52368       20.22847
C         17.92561       21.53779       19.82041
C         18.57565       21.22478       21.16364
H         15.85384       22.66423       22.13860
H         16.10543       22.77856       19.44692
H         17.37836       23.46069       20.52518
H         17.41224       20.62025       19.45117
H         18.63471       21.88466       19.03925
H         19.05436       20.22272       21.10533
H         19.31958       21.99870       21.44577
N         15.34169       19.52728       21.43035
C         14.33158       18.53534       21.06838
C         13.00617       18.69995       21.80612
O         12.07744       17.97707       21.47160
C         14.91256       17.11911       21.24382
C         15.22079       16.73908       22.70355
C         16.09319       15.52327       22.71804
O         17.20626       15.57546       22.21923
O         15.68320       14.37583       23.27658
H         16.22625       19.19926       21.83854
H         14.12977       18.65731       19.98055
H         15.85066       17.09818       20.64491
H         14.22792       16.35498       20.81314
H         14.27067       16.56429       23.25420
H         15.77991       17.53797       23.23193
N         12.82892       19.62264       22.79834
C         11.56301       19.83679       23.47145
H         10.75887       19.17191       23.09216
H         11.68697       19.65797       24.55938
H         11.24168       20.88862       23.31464
H         13.61111       20.21698       23.10322
Ca        17.19084       12.70120       23.17889
O         19.44664       13.85879       21.00258
H         18.75284       13.77990       20.30051
H         19.64112       14.82855       21.04998
O         14.49857       11.29125       23.79608
H         14.07905       12.18709       23.77961
H         14.97437       11.22577       22.93069

Ca 1.0



