%chk=apoCaM-CA-Ng.loop1.water3.frame1318.chk
%nprocshared=20
%mem=10GB
%nosave
#b3lyp/svp scf=(tight,noincore,xqc) Test 
#IOP(5/87=12) Density=Current Pop=(MK,readradii) iop(6/33=2) iop(6/42=6)

apoCaM-CA-Ng.loop1.water3.frame1318 

   0  1 
C         33.62712       10.07272       73.44874
C         34.58279       10.55556       74.49372
O         34.39311       11.64953       75.00564
H         32.83093       10.82750       73.26940
H         34.17400        9.90104       72.49795
H         33.15774        9.12613       73.78519
N         35.65856        9.79250       74.84315
C         36.65506       10.22837       75.81306
C         37.95842       10.50408       75.10823
O         38.99968        9.96911       75.46441
C         36.75965        9.27199       77.02086
C         37.18419        7.87020       76.67686
O         36.48345        7.16334       75.97132
O         38.32613        7.37154       77.18734
H         35.79781        8.89361       74.35983
H         36.36679       11.20257       76.22853
H         35.77638        9.23081       77.53665
H         37.49397        9.70397       77.73749
N         37.94986       11.40375       74.08877
C         39.14659       11.85735       73.40170
C         40.03637       12.56420       74.40646
O         41.17131       12.13043       74.54737
C         38.78695       12.68661       72.14198
C         38.00084       11.78448       71.16719
C         37.49093       12.50703       69.92201
C         36.66836       11.52111       69.07370
N         36.10054       12.16973       67.89575
H         37.04298       11.81365       73.81977
H         39.70280       10.97219       73.01549
H         39.71611       13.03758       71.64177
H         38.18190       13.57873       72.38999
H         37.10820       11.37153       71.67995
H         38.64718       10.93195       70.86163
H         38.34468       12.90512       69.33230
H         36.83897       13.35243       70.23353
H         35.83658       11.10727       69.68890
H         37.31596       10.67381       68.75434
H         36.86430       12.54165       67.28700
H         35.54646       11.46428       67.35768
H         35.46360       12.94587       68.18849
N         39.62168       13.56404       75.24204
C         38.31302       14.23153       75.26531
C         37.49216       13.82495       76.48538
O         37.98471       13.10689       77.34410
C         38.50709       15.76239       75.14918
C         39.63837       16.22787       76.02477
O         39.62330       15.98974       77.34390
O         40.64298       16.70118       75.51800
H         40.30463       13.84583       75.96210
H         37.68521       13.91416       74.42200
H         37.56493       16.30713       75.37423
H         38.78825       15.99776       74.09952
N         36.16475       14.15461       76.53947
C         35.22609       13.53144       77.46481
C         35.04031       14.25064       78.76580
O         35.62436       15.29769       78.98900
H         35.76274       14.67117       75.74138
H         35.51983       12.48898       77.68209
H         34.22488       13.49611       76.97993
N         34.20841       13.69655       79.69143
C         33.83528       14.32322       80.95645
C         32.31248       14.28641       81.10548
O         31.67173       13.59096       80.32721
C         34.50803       13.54144       82.10021
C         36.00340       13.60118       81.97462
O         36.63248       14.79065       82.01036
O         36.65254       12.57718       81.83509
H         33.81948       12.76122       79.48561
H         34.17853       15.37803       80.97098
H         34.16964       12.48099       82.07259
H         34.24077       13.95646       83.08720
N         31.61190       14.96856       82.05778
C         32.12839       15.95176       82.99434
C         32.59035       17.19786       82.28230
O         31.91421       17.64440       81.36675
H         30.59162       14.81283       82.09239
H         32.89097       15.53714       83.68039
H         31.27926       16.27204       83.63605
N         33.68798       17.87356       82.71795
C         34.14298       19.11770       82.10024
C         34.74176       18.83410       80.73071
O         35.31269       17.76731       80.55877
C         35.11704       19.85530       83.05079
C         35.59868       21.19559       82.48355
O         36.21452       19.03877       83.35862
H         34.17901       17.51594       83.55230
H         33.26909       19.79713       81.98424
H         34.53990       20.06315       83.98413
H         36.57121       19.35315       84.23124
H         36.20758       21.04453       81.56761
H         34.73033       21.84501       82.24231
H         36.22557       21.71670       83.23766
N         34.60023       19.73326       79.70206
C         35.08381       19.55138       78.32371
C         36.62860       19.54906       78.22138
O         37.17938       18.90804       79.32510
C         34.51064       18.27131       77.65514
C         32.98160       18.12137       77.83917
C         34.89803       18.20412       76.16299
C         32.14768       19.27248       77.27554
H         34.08028       20.60232       79.89454
H         34.71506       20.40521       77.71481
H         34.96757       17.39367       78.13611
H         32.75670       18.03320       78.92087
H         32.65462       17.17175       77.36260
H         34.50906       17.27058       75.70471
H         34.49886       19.07520       75.60309
H         36.00068       18.19782       76.03954
H         32.40637       20.22959       77.77327
H         32.29097       19.37208       76.18118
H         31.07419       19.06806       77.46863
N         37.21737       20.87929       78.10051
C         38.63693       20.82199       77.68095
C         39.44331       21.88222       78.39723
O         40.64981       21.91900       78.20019
C         38.84245       20.84802       76.13559
C         38.32479       22.10621       75.42984
O         38.23819       19.72377       75.55265
H         36.66079       21.50897       77.48334
H         39.09785       19.87068       78.03564
H         39.94127       20.81815       75.93153
H         38.88573       18.97532       75.63449
H         38.58878       22.05414       74.35099
H         37.22141       22.18751       75.49084
H         38.78861       23.01875       75.85791
N         38.86730       22.72783       79.30282
C         39.64561       23.62270       80.14872
C         40.55296       22.77128       81.03129
O         40.06321       22.19958       81.99371
C         38.69728       24.51071       81.00899
C         37.90102       25.48445       80.12116
O         37.81532       23.68476       81.73612
H         37.84805       22.69990       79.43922
H         40.26639       24.28131       79.50116
H         39.30939       25.10911       81.71950
H         37.15495       24.26316       82.19852
H         38.59507       26.15649       79.57530
H         37.26982       24.94312       79.38569
H         37.23409       26.11371       80.74877
N         41.86776       22.57338       80.69736
C         42.79934       21.69501       81.41229
C         42.34695       20.24214       81.43853
O         41.23732       19.95534       81.85502
C         43.06955       22.17395       82.84251
C         43.75452       23.54388       82.86071
C         44.08348       23.93658       84.30102
C         44.80744       25.28323       84.36580
N         45.08962       25.64308       85.75439
H         42.23564       23.05436       79.86261
H         43.78049       21.72551       80.88608
H         43.76202       21.44329       83.31956
H         42.13274       22.19821       83.43729
H         43.09033       24.30790       82.40102
H         44.69859       23.49031       82.27246
H         44.73632       23.15729       84.75393
H         43.13857       23.99599       84.88345
H         44.17337       26.07100       83.90219
H         45.76353       25.22014       83.79868
H         44.19467       25.72508       86.28995
H         45.69810       24.91648       86.19756
H         45.58521       26.56275       85.77797
N         43.21192       19.24726       81.09860
C         42.83867       17.84026       81.16249
C         41.85590       17.50413       80.04970
O         40.77364       17.03993       80.37648
C         44.07737       16.91986       81.18166
C         44.91878       17.15915       82.44915
C         46.11982       16.26164       82.48556
O         46.27632       15.38395       83.49483
O         46.96946       16.33553       81.61216
H         44.17929       19.49583       80.84200
H         42.33385       17.64246       82.13798
H         44.71336       17.07817       80.29486
H         43.73596       15.86031       81.18879
H         44.29195       16.96449       83.34770
H         45.26871       18.21204       82.49220
N         42.09134       17.71734       78.72126
C         43.29358       18.28263       78.15073
H         44.16219       17.62453       78.32398
H         43.17360       18.36624       77.04957
H         43.47391       19.30093       78.54657
H         41.34335       17.48444       78.05801
Ca        38.11507       17.04580       78.54754
O         38.38986       19.02851       81.80729
H         39.08710       18.89810       81.11959
H         38.87955       19.09618       82.66462
O         39.08792       16.18442       82.69533
H         39.11319       15.28863       83.11581
H         39.71094       16.73089       83.23647
O         39.33357       13.93932       80.27530
H         38.79498       14.33842       79.54734
H         38.95590       13.03184       80.39341

Ca 1.0



