%chk=apoCaM-CA-Ng.loop2.water2.frame570.chk
%nprocshared=20
%mem=10GB
%nosave
#b3lyp/svp scf=(tight,noincore,xqc) Test 
#IOP(5/87=12) Density=Current Pop=(MK,readradii) iop(6/33=2) iop(6/42=6)

apoCaM-CA-Ng.loop2.water2.frame570 

   -2  1 
C         51.34372       25.92582       -6.20682
C         50.12882       26.42540       -6.93467
O         49.29070       27.07877       -6.32982
H         52.25413       26.37225       -6.65877
H         51.30501       26.20261       -5.13159
H         51.40579       24.81933       -6.28564
N         49.95765       26.12477       -8.25042
C         48.80385       26.56735       -9.02339
C         48.87791       28.05660       -9.30670
O         49.86046       28.49929       -9.88312
C         48.74077       25.81633      -10.36923
C         47.53277       26.23369      -11.16836
O         47.67021       26.74510      -12.26813
O         46.29516       26.06349      -10.66387
H         50.66234       25.52266       -8.70559
H         47.87399       26.30416       -8.46979
H         48.67428       24.72348      -10.17933
H         49.66625       26.01188      -10.95566
N         47.82004       28.86911       -9.02927
C         47.76833       30.26519       -9.46605
C         48.79895       31.12207       -8.73021
O         49.30515       30.65725       -7.71786
C         46.34233       30.79238       -9.25001
H         46.98939       28.44941       -8.58318
H         47.97359       30.26735      -10.55378
H         45.62905       30.14366       -9.80273
H         46.08279       30.76965       -8.17091
H         46.18867       31.81639       -9.62106
N         49.18364       32.38014       -9.12359
C         48.72948       33.09899      -10.31947
C         49.14514       32.42321      -11.62588
O         49.87014       31.43751      -11.60722
C         49.19423       34.57987      -10.27440
C         50.68521       34.80387      -10.30487
O         51.11619       35.94543      -10.26724
O         51.55157       33.77495      -10.36959
H         49.84991       32.86737       -8.50251
H         47.63084       33.15140      -10.30270
H         48.79428       35.03969       -9.34398
H         48.74873       35.13440      -11.12655
N         48.69889       32.92433      -12.81578
C         48.98935       32.33306      -14.11415
C         48.27871       31.00356      -14.32060
O         47.58659       30.55563      -13.41784
H         48.12322       33.77829      -12.81160
H         50.08807       32.21530      -14.22990
H         48.62425       33.02885      -14.89904
N         48.39454       30.27840      -15.47533
C         49.18196       30.68091      -16.63614
C         50.46023       29.86885      -16.73744
O         51.25182       30.15865      -17.62523
C         48.36657       30.51828      -17.93655
C         47.07133       31.28740      -17.92472
N         45.88944       30.64176      -18.06959
O         47.08794       32.50282      -17.80072
H         47.92260       29.36091      -15.51827
H         49.49345       31.74180      -16.54846
H         48.15689       29.43736      -18.09240
H         48.97105       30.87227      -18.80113
H         45.85593       29.61772      -18.18388
H         45.00187       31.16519      -18.07373
N         50.76753       28.86856      -15.85220
C         52.04077       28.16700      -15.89433
C         53.21461       29.08157      -15.58383
O         54.34739       28.65353      -15.74964
H         50.10142       28.59189      -15.11798
H         52.16389       27.73302      -16.91015
H         52.04315       27.33382      -15.15917
N         53.02069       30.35765      -15.14249
C         54.08862       31.32652      -14.94508
C         55.06283       30.88796      -13.88027
O         54.63860       30.43198      -12.83071
C         53.50891       32.71825      -14.57458
C         52.70041       33.30241      -15.74402
O         52.70705       32.62276      -13.42325
H         52.06267       30.67655      -14.95236
H         54.64384       31.45828      -15.89924
H         54.36393       33.40596      -14.37535
H         52.48951       33.55038      -13.14303
H         52.32768       34.31432      -15.48271
H         53.34873       33.39133      -16.64174
H         51.82954       32.66692      -16.00125
N         56.39173       31.14180      -14.04592
C         57.36853       30.98378      -12.98188
C         57.65661       32.36860      -12.43953
O         58.10741       33.23511      -13.17668
C         58.66172       30.26924      -13.47504
C         59.72465       30.23026      -12.33588
C         58.31656       28.85054      -13.96274
C         61.06347       29.61012      -12.73923
H         56.70139       31.60656      -14.91345
H         56.94926       30.36526      -12.15657
H         59.08456       30.84478      -14.32910
H         59.32330       29.68081      -11.45682
H         59.95359       31.26910      -12.01419
H         59.20772       28.34247      -14.38294
H         57.91544       28.23977      -13.12508
H         57.55780       28.88911      -14.77169
H         61.77097       29.68333      -11.88528
H         60.95474       28.53645      -12.99046
H         61.49779       30.15511      -13.60402
N         57.43457       32.61861      -11.12351
C         57.74356       33.87022      -10.45597
C         58.96080       33.64583       -9.57624
O         59.90093       34.41969       -9.68515
C         56.53088       34.40222       -9.65577
C         55.49556       35.06558      -10.54539
O         55.38304       36.27995      -10.53562
O         54.65500       34.35152      -11.30867
H         57.09173       31.84342      -10.53778
H         58.03105       34.66791      -11.17844
H         56.91557       35.20090       -8.98817
H         56.08119       33.61951       -9.00372
N         59.03662       32.58603       -8.71930
C         60.22666       32.27080       -7.92533
C         59.87646       31.13923       -6.95662
O         60.53711       30.10472       -6.98648
C         61.38105       31.88485       -8.90971
C         62.78013       31.64128       -8.37777
C         63.77245       31.30201       -9.31905
C         63.14393       31.75263       -7.02214
C         65.09212       31.07832       -8.92103
C         64.46965       31.52364       -6.62780
C         65.44125       31.18826       -7.57542
H         58.22460       31.95866       -8.65383
H         60.50695       33.16645       -7.32910
H         61.50816       32.69267       -9.65492
H         61.05892       30.97657       -9.46669
H         63.52266       31.21548      -10.37030
H         62.41892       32.01760       -6.26677
H         65.84380       30.82222       -9.65787
H         64.74768       31.60948       -5.58569
H         66.46550       31.01574       -7.26920
N         58.81429       31.22827       -6.08772
C         58.38294       30.15441       -5.20252
C         58.11903       28.82718       -5.88689
O         57.96800       27.83516       -5.18943
C         57.04090       30.65730       -4.65506
C         57.26117       32.14679       -4.59521
C         57.98464       32.40943       -5.91242
H         59.16987       30.03773       -4.42404
H         56.24974       30.50015       -5.42928
H         56.70418       30.17077       -3.71569
H         56.34262       32.75549       -4.45144
H         57.96451       32.33854       -3.75530
H         57.26000       32.47656       -6.74959
H         58.57155       33.34679       -5.81713
N         57.97322       28.74312       -7.23984
C         57.72455       27.48725       -7.91267
C         59.03357       26.74783       -8.03782
O         59.12951       25.63083       -7.54737
C         57.01462       27.68951       -9.26614
C         55.56500       28.19751       -9.09366
C         55.38241       29.68074       -9.15798
O         54.59227       30.14092      -10.13833
O         55.89348       30.45180       -8.36221
H         58.04533       29.58603       -7.82002
H         57.02288       26.86572       -7.31060
H         56.92353       26.66818       -9.69449
H         57.58648       28.30260       -9.99978
H         55.09669       27.78607       -8.17528
H         54.98371       27.80828       -9.95625
N         60.10706       27.34201       -8.62918
C         61.42183       26.73700       -8.68158
H         62.13486       27.38045       -8.12301
H         61.44206       25.72581       -8.22247
H         61.75535       26.65733       -9.73567
H         60.00531       28.29037       -9.02218
Ca        54.35761       32.26167      -10.68148
O         52.16522       29.34442      -11.62568
H         52.30849       28.65579      -10.92837
H         51.67645       28.87333      -12.34569
O         52.16589       30.84030       -8.61259
H         52.04932       30.53329       -7.67892
H         51.52222       30.29878       -9.13221

Ca 1.0



