%chk=apoCaM-CA-Ng.loop3.water4.frame213.chk
%nprocshared=20
%mem=10GB
%nosave
#b3lyp/svp scf=(tight,noincore,xqc) Test 
#IOP(5/87=12) Density=Current Pop=(MK,readradii) iop(6/33=2) iop(6/42=6)

apoCaM-CA-Ng.loop3.water4.frame213 

   0  1 
C         46.47159       37.91957       70.87021
C         47.92336       38.23537       70.64943
O         48.46342       39.06956       71.35925
H         45.86620       38.83823       70.72779
H         46.10811       37.15478       70.15072
H         46.32029       37.53702       71.90020
N         48.61539       37.61332       69.65555
C         50.00949       37.87961       69.31513
C         50.19537       39.32386       68.87478
O         51.12884       39.99062       69.30019
C         50.96682       37.45934       70.45215
C         50.80664       36.00454       70.79400
O         50.43241       35.63981       72.03516
O         51.02014       35.14701       69.95152
H         48.11970       36.92229       69.07100
H         50.25086       37.25910       68.42257
H         50.77496       38.07201       71.35827
H         52.01945       37.63102       70.13978
N         49.30408       39.86378       68.00101
C         49.40800       41.19413       67.41357
C         48.39115       42.14899       68.02417
O         48.24574       43.25506       67.52185
C         49.23731       41.03724       65.89126
C         50.40206       40.21623       65.29992
C         50.13055       39.70030       63.88323
C         49.83920       40.79651       62.85367
N         49.61111       40.20209       61.53652
H         48.48560       39.29691       67.72824
H         50.40018       41.65847       67.61084
H         49.21097       42.02970       65.39150
H         48.26768       40.52510       65.70392
H         50.57669       39.30542       65.91168
H         51.33165       40.82678       65.33200
H         49.26410       39.00441       63.92386
H         51.02257       39.12200       63.55605
H         50.69703       41.50213       62.80090
H         48.92998       41.36169       63.15297
H         49.38684       40.95747       60.85030
H         50.46889       39.69495       61.21824
H         48.80640       39.53415       61.57845
N         47.75884       41.84008       69.19487
C         46.94158       42.77585       69.95777
C         47.73378       44.06696       70.21006
O         48.87649       44.00823       70.63946
C         46.46324       42.07679       71.26431
C         45.78130       43.03181       72.18702
O         46.43994       43.92388       72.67275
O         44.48299       42.97412       72.51551
H         47.93463       40.92282       69.62270
H         46.02540       43.03362       69.38181
H         47.32670       41.64695       71.81946
H         45.77346       41.25021       70.99250
N         47.15419       45.27383       69.94321
C         47.80232       46.57633       70.04524
C         48.40267       46.89106       71.40372
O         49.52006       47.38590       71.43776
H         46.17441       45.27859       69.62220
H         47.03985       47.35358       69.81579
H         48.59340       46.66190       69.26837
N         47.73191       46.63043       72.56124
C         48.25964       46.93814       73.89279
C         48.80451       45.71478       74.64284
O         49.18063       45.86634       75.79891
C         47.20005       47.67482       74.74138
C         45.94616       46.83197       75.05728
N         45.37540       47.24010       76.32960
O         44.97614       47.00516       74.06083
H         46.81548       46.17874       72.49110
H         49.12683       47.62993       73.80713
H         46.90262       48.63854       74.27346
H         47.70441       47.93571       75.69810
H         46.03590       46.95506       77.08890
H         44.50329       46.68660       76.46340
N         48.95864       44.49943       74.04969
C         49.53465       43.34230       74.71852
C         48.65155       42.80307       75.82203
O         49.09531       42.70619       76.95489
H         48.72611       44.39420       73.05765
H         50.54517       43.59826       75.10723
H         49.65754       42.52423       73.97569
N         47.38645       42.39545       75.52964
C         46.47494       41.76184       76.48050
C         45.29398       42.65708       76.75898
O         45.21006       43.74385       76.21257
C         46.03546       40.40594       75.89318
C         47.20131       39.45802       75.92159
C         47.61629       38.92274       77.15137
C         47.89388       39.11864       74.75075
C         48.71046       38.06069       77.21272
C         49.00158       38.26584       74.81528
C         49.41256       37.73448       76.04882
O         50.48004       36.91587       76.12993
H         47.05135       42.51544       74.56784
H         46.96339       41.61248       77.46759
H         45.66666       40.57577       74.85602
H         45.20218       39.93588       76.45808
H         47.08524       39.17207       78.06262
H         47.59081       39.53278       73.79826
H         49.01509       37.65315       78.16842
H         49.54241       38.02325       73.90962
H         51.00562       36.67731       75.35373
N         44.36088       42.26683       77.68203
C         43.30273       43.16714       78.11396
C         43.97069       44.32919       78.81921
O         43.76079       45.46087       78.41102
C         42.26161       42.49446       79.06624
C         41.65784       41.17405       78.51490
C         41.11755       43.48617       79.39104
C         40.89219       41.30782       77.19589
H         44.45151       41.34499       78.12450
H         42.74321       43.50994       77.21961
H         42.77327       42.23059       80.01803
H         40.96378       40.75755       79.27786
H         42.45959       40.42230       78.37228
H         41.48879       44.42714       79.82690
H         40.56521       43.78471       78.47767
H         40.40629       43.03516       80.11469
H         41.55875       41.67944       76.39406
H         40.50740       40.31109       76.89548
H         40.01921       41.98348       77.29685
N         44.81947       44.12194       79.87264
C         45.47017       45.22101       80.58181
C         44.44430       46.10473       81.27806
O         44.75383       47.24844       81.57422
C         46.50190       44.70476       81.59735
O         47.46546       43.90626       80.96259
H         45.01611       43.15049       80.16546
H         46.00917       45.83224       79.82232
H         45.99289       44.09060       82.37110
H         47.00093       45.54983       82.12398
H         48.05528       44.52070       80.45232
N         43.18237       45.63641       81.51738
C         42.04066       46.39950       82.01136
C         41.51033       47.44052       81.01977
O         40.44484       47.98013       81.28728
C         42.32102       47.00715       83.39021
H         42.99994       44.64038       81.34429
H         41.21001       45.66840       82.14117
H         41.39942       47.47639       83.79494
H         42.64306       46.21033       84.09438
H         43.11007       47.78403       83.34040
N         42.16807       47.79012       79.87236
C         41.66551       48.80123       78.94708
C         40.53824       48.27294       78.07336
O         40.27417       47.07846       78.07020
C         42.80351       49.28166       78.03531
H         43.08927       47.39415       79.67427
H         41.31851       49.67606       79.53976
H         42.46248       50.09218       77.35855
H         43.64182       49.67350       78.64990
H         43.17856       48.44052       77.41685
N         39.84124       49.14379       77.28238
C         38.81002       48.78616       76.30706
C         37.57845       48.09519       76.88951
O         36.68707       47.79124       76.10748
C         39.40331       47.95484       75.14412
C         40.51468       48.71567       74.40069
C         40.97900       47.96107       73.18707
O         40.19466       47.69768       72.28914
O         42.26933       47.60068       73.06641
H         40.07824       50.14546       77.34750
H         38.43555       49.73132       75.85230
H         38.58948       47.75189       74.41271
H         39.78181       46.97845       75.50991
H         41.37404       48.89010       75.08343
H         40.12866       49.70061       74.05991
N         37.42526       47.82803       78.21941
C         36.26233       47.15036       78.75944
H         35.52015       46.88178       77.97792
H         36.58515       46.21456       79.26182
H         35.76453       47.80746       79.50154
H         38.14216       48.10850       78.89890
Ca        44.08752       44.95940       73.52083
O         41.91112       42.19190       73.82137
H         41.37780       42.00437       73.00884
H         42.50852       41.40729       73.91236
O         41.21325       44.50995       71.70707
H         40.79681       43.89158       71.05548
H         41.33367       45.35368       71.20409
O         44.12621       46.43017       70.88757
H         43.85666       45.50029       70.67894
H         43.38354       46.98723       70.54455
O         41.97258       45.50243       75.66045
H         42.30238       46.37895       75.34451
H         41.85234       45.63138       76.63289

Ca 1.0



