%chk=apoCaM-CA-Ng.loop2.water4.frame1307.chk
%nprocshared=20
%mem=10GB
%nosave
#b3lyp/svp scf=(tight,noincore,xqc) Test 
#IOP(5/87=12) Density=Current Pop=(MK,readradii) iop(6/33=2) iop(6/42=6)

apoCaM-CA-Ng.loop2.water4.frame1307 

   -2  1 
C         41.88443       18.66795       78.91392
C         42.84311       19.82546       78.84772
O         43.80941       19.73501       78.10468
H         40.87686       19.00438       78.58667
H         42.20947       17.85203       78.23333
H         41.83080       18.26551       79.94554
N         42.64902       20.98363       79.54187
C         41.51986       21.23680       80.43620
C         41.92941       21.77127       81.81243
O         41.04840       21.87798       82.65509
C         40.52228       22.18099       79.73693
C         41.19154       23.39623       79.15794
O         41.13641       23.60687       77.95692
O         41.89915       24.22666       79.93821
H         43.30959       21.75520       79.35968
H         40.96976       20.29661       80.64562
H         39.71318       22.47611       80.43937
H         40.04916       21.62365       78.89822
N         43.21116       22.12170       82.13454
C         43.59435       22.58089       83.47054
C         42.81606       23.81323       83.90205
O         42.15838       23.75917       84.93200
C         45.09912       22.88057       83.52716
H         43.95088       22.04682       81.42346
H         43.39375       21.76130       84.19713
H         45.67927       21.96980       83.26846
H         45.37294       23.68792       82.81464
H         45.38835       23.19852       84.55233
N         42.85428       24.95921       83.16646
C         42.16944       26.19246       83.55194
C         41.09823       26.55119       82.54381
O         41.30067       26.33739       81.36000
C         43.18122       27.34630       83.75703
C         44.01920       27.75316       82.56643
O         43.91282       27.20423       81.48318
O         44.91268       28.75005       82.70832
H         43.39805       24.95096       82.29184
H         41.66307       26.06843       84.53440
H         43.87877       27.04991       84.56975
H         42.62244       28.24488       84.09809
N         39.92462       27.12719       82.93868
C         38.86972       27.47666       81.99516
C         39.34227       28.45498       80.94203
O         40.48297       28.89460       80.99302
H         39.76655       27.32027       83.93918
H         38.00584       27.91595       82.53885
H         38.52792       26.54832       81.48779
N         38.51081       28.82144       79.92615
C         38.96425       29.64164       78.80675
C         38.31036       31.00699       78.77651
O         38.73972       31.82199       77.96991
C         38.73577       28.88309       77.48650
C         39.46962       27.56409       77.48343
N         38.79654       26.39468       77.37468
O         40.68695       27.55335       77.58397
H         37.54158       28.46629       79.92012
H         40.05320       29.84724       78.90062
H         39.10013       29.48833       76.62839
H         37.64454       28.71531       77.35016
H         37.76974       26.37836       77.29273
H         39.30416       25.49813       77.37654
N         37.29981       31.36236       79.62263
C         36.78490       32.72064       79.65873
C         37.79274       33.66011       80.30444
O         38.82099       33.18967       80.77209
H         36.88270       30.67272       80.26356
H         35.86487       32.75066       80.28145
H         36.52216       33.03414       78.62495
N         37.58833       35.00393       80.41796
C         36.44682       35.72745       79.86611
C         36.88447       36.76757       78.83113
O         36.01255       37.33823       78.19064
C         35.65528       36.40842       81.00716
C         35.11463       35.38298       82.01085
O         36.48667       37.32465       81.67434
H         38.29956       35.54624       80.93309
H         35.76356       35.03162       79.33952
H         34.78887       36.94456       80.55317
H         35.89393       37.97405       82.13501
H         34.53475       35.90213       82.80321
H         34.44342       34.66110       81.49984
H         35.94453       34.82594       82.49575
N         38.19883       37.09895       78.63828
C         38.66401       38.11184       77.69424
C         39.77119       37.49891       76.83481
O         40.71294       36.97260       77.41211
C         39.19593       39.35496       78.47218
C         38.05194       39.95556       79.33616
C         39.75192       40.41144       77.49145
C         38.45599       41.17539       80.16426
H         38.92557       36.66186       79.21874
H         37.82516       38.48046       77.07535
H         40.02560       39.03604       79.14192
H         37.69685       39.18561       80.05202
H         37.19687       40.24163       78.68432
H         38.94805       40.79080       76.82588
H         40.19942       41.26712       78.03382
H         40.56577       39.98907       76.86649
H         39.30348       40.92416       80.83517
H         38.73145       42.03130       79.51560
H         37.59176       41.49750       80.78301
N         39.80530       37.55956       75.46989
C         38.82055       38.25070       74.64152
C         39.41284       38.71325       73.31293
O         40.55642       38.40909       73.00305
C         37.56135       37.36832       74.44430
C         37.81206       36.07363       73.70970
O         36.87919       35.31387       73.50483
O         39.04171       35.73561       73.27420
H         40.64217       37.16202       75.01624
H         38.53906       39.19881       75.14039
H         36.79337       37.94071       73.88327
H         37.12517       37.11385       75.43146
N         38.66674       39.48383       72.47518
C         39.15213       39.94959       71.18397
C         40.28638       40.96876       71.33757
O         40.05378       41.97149       72.00152
C         38.00935       40.65192       70.40873
C         38.48234       41.08793       69.03996
C         38.81142       40.12939       68.06672
C         38.62928       42.45270       68.73625
C         39.28819       40.52838       66.81548
C         39.11238       42.84746       67.48484
C         39.44250       41.88623       66.52581
H         37.70321       39.72265       72.75598
H         39.44398       39.05601       70.60360
H         37.67300       41.53383       70.99961
H         37.13234       39.97888       70.29356
H         38.70456       39.07322       68.28008
H         38.39071       43.21012       69.47257
H         39.54438       39.78373       66.07331
H         39.23714       43.89890       67.26071
H         39.81993       42.19305       65.55920
N         41.48659       40.87447       70.67741
C         41.90430       39.79600       69.79633
C         42.79701       38.78963       70.51613
O         43.13579       37.78628       69.90425
C         42.72470       40.54734       68.74401
C         43.48357       41.54371       69.61324
C         42.38559       42.01311       70.56728
H         41.07054       39.26810       69.30214
H         43.35793       39.90721       68.09266
H         42.02447       41.12444       68.09759
H         44.24700       40.97967       70.19183
H         44.00200       42.36204       69.07082
H         42.79416       42.35789       71.54141
H         41.81820       42.84039       70.08443
N         43.28723       39.02612       71.77191
C         44.24117       38.14264       72.43512
C         45.49266       38.01037       71.57002
O         46.12156       39.02504       71.30242
C         44.66423       38.71139       73.81222
C         43.50726       38.81481       74.81785
C         43.99111       39.39906       76.11530
O         43.51470       40.44189       76.53505
O         44.95424       38.77685       76.82209
H         43.02055       39.89434       72.25426
H         43.75778       37.15908       72.60197
H         45.11293       39.72075       73.66848
H         45.44250       38.04445       74.24660
H         43.08701       37.80541       75.00959
H         42.69953       39.46170       74.41709
N         45.93457       36.81939       71.07432
C         45.28255       35.55094       71.31554
H         44.24646       35.56830       70.91768
H         45.83755       34.73898       70.79957
H         45.26874       35.33048       72.40365
H         46.78548       36.81461       70.49022
Ca        42.95097       25.97247       78.96358
O         45.07813       23.92564       78.04051
H         44.39132       23.62655       77.39283
H         45.71187       24.46186       77.50067
O         42.85803       26.00124       75.79729
H         41.92295       26.15377       75.50960
H         43.27235       26.90045       75.78061
O         45.26957       27.56642       77.82901
H         45.36790       28.45631       77.40645
H         46.16520       27.36403       78.19899
O         43.05019       29.23715       79.39812
H         42.79395       29.35027       78.44867
H         42.71246       30.05277       79.84625

Ca 1.0



