%chk=apoCaM-CA-Ng.loop2.water4.frame505.chk
%nprocshared=20
%mem=10GB
%nosave
#b3lyp/svp scf=(tight,noincore,xqc) Test 
#IOP(5/87=12) Density=Current Pop=(MK,readradii) iop(6/33=2) iop(6/42=6)

apoCaM-CA-Ng.loop2.water4.frame505 

   -2  1 
C         52.28555       63.49047       39.00160
C         51.64869       64.84285       39.11098
O         52.37240       65.82624       39.17744
H         52.94022       63.31783       39.88008
H         51.52307       62.68469       38.95919
H         52.89611       63.44617       38.07476
N         50.29161       64.97081       39.10090
C         49.61300       66.26144       39.13263
C         48.98396       66.53286       37.78512
O         48.74512       65.60157       37.02631
C         48.61158       66.37841       40.30410
C         47.53416       65.32248       40.31800
O         46.36130       65.64290       40.21325
O         47.84759       64.02699       40.51356
H         49.72299       64.11893       38.99301
H         50.36235       67.06973       39.27878
H         48.13766       67.38424       40.25679
H         49.16380       66.31292       41.26591
N         48.80421       67.81939       37.37031
C         48.37450       68.14305       36.01386
C         49.41867       67.66214       34.99306
O         50.52021       67.32685       35.40675
C         48.19496       69.66559       35.88796
H         49.01699       68.58503       38.02974
H         47.40007       67.63349       35.85355
H         47.82906       69.96445       34.88907
H         47.45994       70.02636       36.63806
H         49.16427       70.18026       36.06965
N         49.19176       67.58150       33.64650
C         47.91869       67.84522       32.99354
C         47.36892       66.59274       32.34410
O         48.05481       65.58291       32.28573
C         48.03796       69.03613       32.02441
C         49.01481       68.97400       30.86725
O         49.82261       67.93246       30.55984
O         49.08960       69.96443       30.15820
H         49.97114       67.26452       33.05104
H         47.15729       68.12852       33.74330
H         48.32981       69.92073       32.62972
H         47.03266       69.24810       31.60126
N         46.08555       66.57668       31.88867
C         45.44770       65.40068       31.31922
C         45.28902       64.26317       32.32179
O         45.73129       64.39704       33.45385
H         45.52006       67.43711       31.95936
H         46.01946       65.06353       30.42936
H         44.42412       65.69654       30.99761
N         44.60535       63.11772       32.01967
C         43.96933       62.85821       30.73194
C         44.33298       61.48488       30.15307
O         43.90660       61.20024       29.04260
C         42.44786       63.03205       30.93096
C         41.67234       63.10526       29.64038
N         40.64643       62.25887       29.39557
O         41.95348       63.96638       28.81957
H         44.45022       62.44121       32.78391
H         44.29653       63.61282       29.99096
H         42.27750       64.00388       31.44535
H         42.06082       62.22896       31.59636
H         40.37754       61.53945       30.08179
H         40.10682       62.33606       28.52056
N         45.08849       60.57039       30.83864
C         45.38429       59.23893       30.32584
C         46.41883       59.20125       29.21664
O         46.66812       58.10981       28.72149
H         45.41401       60.77323       31.79170
H         44.43678       58.76286       29.98811
H         45.78969       58.61584       31.15222
N         47.07498       60.31590       28.77802
C         48.06184       60.29767       27.69670
C         49.41213       60.83026       28.16939
O         49.54237       61.20442       29.32637
C         47.52251       61.12556       26.50666
C         46.22851       60.52030       25.95026
O         47.28938       62.44807       26.91739
H         46.86138       61.22830       29.20719
H         48.23738       59.25914       27.33583
H         48.27812       61.10930       25.68910
H         47.30782       63.01285       26.10170
H         46.40847       59.47706       25.61254
H         45.42656       60.51678       26.71791
H         45.87883       61.11522       25.08084
N         50.47303       60.87452       27.31223
C         51.80404       61.37579       27.65298
C         52.15439       62.53270       26.73118
O         52.01669       62.39426       25.52180
C         52.86459       60.24049       27.50483
C         54.30276       60.78516       27.76343
C         52.53291       59.08664       28.47003
C         55.41129       59.75304       27.55284
H         50.34084       60.51964       26.35215
H         51.84734       61.72873       28.70891
H         52.82204       59.85139       26.46270
H         54.37804       61.19754       28.79332
H         54.52075       61.60650       27.04894
H         51.51349       58.69320       28.27870
H         53.22905       58.23555       28.33279
H         52.59072       59.43367       29.52439
H         55.34398       58.92640       28.28668
H         55.36421       59.34467       26.52100
H         56.39874       60.24056       27.69391
N         52.73894       63.65775       27.23313
C         53.27135       64.72098       26.38943
C         54.77346       64.57088       26.24794
O         55.25208       64.54600       25.12416
C         52.96390       66.11794       26.96591
C         51.50061       66.43676       26.98805
O         50.90827       66.79159       28.14016
O         50.85143       66.42927       25.95486
H         52.93478       63.69796       28.24601
H         52.83678       64.67415       25.36470
H         53.45600       66.88251       26.32491
H         53.38231       66.21232       27.99189
N         55.57996       64.51976       27.34651
C         57.03939       64.54995       27.28047
C         57.60188       64.71160       28.69027
O         58.33418       63.84567       29.15252
C         57.64109       63.32395       26.53157
C         59.15431       63.42862       26.43826
C         59.75955       64.55118       25.83866
C         59.97591       62.41752       26.96972
C         61.15106       64.66944       25.79582
C         61.36952       62.53653       26.91459
C         61.95582       63.66433       26.33449
H         55.13082       64.53349       28.27442
H         57.33279       65.45283       26.71013
H         57.25281       63.27031       25.49567
H         57.34157       62.38820       27.05015
H         59.16042       65.34656       25.41638
H         59.54074       61.54057       27.43219
H         61.60484       65.54465       25.34836
H         61.99672       61.75747       27.32814
H         63.03358       63.76056       26.30188
N         57.31734       65.82012       29.44399
C         57.88752       66.07184       30.75791
C         57.57835       65.02313       31.80636
O         58.16945       65.09002       32.87571
C         57.24134       67.39508       31.18349
C         57.04882       68.09290       29.85740
C         56.54171       66.95399       28.98244
H         58.98819       66.16367       30.61430
H         56.21521       67.19140       31.57264
H         57.80539       67.96081       31.95442
H         56.38368       68.98161       29.87885
H         58.05501       68.39818       29.48999
H         55.46632       66.74518       29.16809
H         56.71710       67.22509       27.92115
N         56.62312       64.06750       31.61075
C         56.31047       63.07699       32.62381
C         57.49025       62.14185       32.77700
O         58.02826       62.03672       33.87110
C         55.01875       62.28184       32.30647
C         53.71612       63.08433       32.51738
C         53.25187       64.03495       31.44714
O         51.96086       63.95973       31.06457
O         53.93186       64.98176       31.09579
H         56.09235       64.04888       30.73153
H         56.13120       63.58638       33.59903
H         54.97502       61.49146       33.08949
H         55.04034       61.77055       31.32066
H         53.79948       63.65435       33.46771
H         52.88996       62.35445       32.65523
N         57.96428       61.44655       31.70823
C         59.10758       60.56759       31.81254
H         59.99333       61.13879       32.16516
H         58.88960       59.74472       32.52572
H         59.34051       60.13093       30.81860
H         57.51273       61.55857       30.78784
Ca        50.73032       65.85179       30.77879
O         49.34911       64.25864       28.51870
H         49.58236       64.28700       27.55702
H         48.36134       64.31923       28.53767
O         48.85884       62.98469       31.57619
H         49.75388       62.84783       31.18117
H         48.96783       62.71077       32.52048
O         50.90313       64.65224       33.57746
H         51.67693       65.07978       34.02292
H         50.21537       64.56997       34.28329
O         53.25963       67.49048       31.88815
H         53.12118       67.52098       30.90752
H         52.42237       67.85259       32.27062

Ca 1.0



