%chk=apoCaM-CA-Ng.loop1.water2.frame782.chk
%nprocshared=20
%mem=10GB
%nosave
#b3lyp/svp scf=(tight,noincore,xqc) Test 
#IOP(5/87=12) Density=Current Pop=(MK,readradii) iop(6/33=2) iop(6/42=6)

apoCaM-CA-Ng.loop1.water2.frame782 

   0  1 
C        115.04597       17.57305       23.03800
C        115.17531       16.20096       23.62606
O        116.28468       15.70633       23.76414
H        114.52973       18.24243       23.75764
H        116.04377       17.99600       22.79855
H        114.44730       17.51449       22.10398
N        114.05491       15.52382       23.99124
C        114.06362       14.16170       24.51765
C        113.29533       13.23722       23.58687
O        112.64187       13.72527       22.67390
C        113.58058       14.14100       25.99362
C        112.26476       14.81490       26.33043
O        111.49975       15.41648       25.39988
O        111.92011       14.87327       27.50003
H        113.15192       15.99877       23.85307
H        115.10278       13.76758       24.52441
H        114.35093       14.67950       26.58753
H        113.55107       13.09142       26.35719
N        113.37785       11.87694       23.72167
C        112.67815       10.95352       22.82699
C        111.62712       10.18981       23.60187
O        111.73580       10.07381       24.81559
C        113.63488        9.99354       22.08064
C        114.71522       10.74659       21.27991
C        115.52929        9.85316       20.32100
C        116.27139        8.69333       21.00395
N        117.09248        7.96142       20.03607
H        113.95042       11.48245       24.48403
H        112.13755       11.53256       22.04692
H        113.02460        9.38624       21.37541
H        114.12629        9.30691       22.80300
H        115.40265       11.25879       21.98779
H        114.22587       11.52201       20.65102
H        116.27527       10.50303       19.81215
H        114.85230        9.43645       19.54330
H        115.53432        7.99240       21.45262
H        116.92623        9.08732       21.81130
H        117.55464        7.15455       20.51445
H        116.49951        7.59522       19.25578
H        117.83361        8.58893       19.64670
N        110.50044        9.76398       22.96364
C        109.33697        9.22569       23.66116
C        108.93066        7.90093       23.05902
O        108.80312        7.83544       21.84392
C        108.17655       10.22679       23.54414
C        108.59342       11.53436       24.14584
O        108.93877       11.58811       25.31646
O        108.67387       12.63678       23.38214
H        110.42138        9.92335       21.94677
H        109.56081        9.11538       24.73728
H        107.28449        9.84256       24.08455
H        107.91029       10.37704       22.47485
N        108.69468        6.78132       23.79749
C        108.64705        6.69585       25.24877
C        109.89348        6.06931       25.81495
O        110.85515        5.85866       25.09052
H        108.44378        5.92757       23.28528
H        107.77237        6.06227       25.51205
H        108.45239        7.66731       25.74011
N        109.93653        5.75000       27.13813
C        111.07876        5.09914       27.77323
C        111.36869        3.74274       27.14089
O        112.49504        3.52808       26.71631
C        110.90284        4.99278       29.30933
C        109.75246        4.14266       29.78379
O        109.99264        3.05786       30.54448
O        108.59989        4.44529       29.52074
H        109.11359        5.98871       27.70982
H        111.97247        5.74831       27.62934
H        110.77822        6.01533       29.72767
H        111.84362        4.57411       29.73005
N        110.39908        2.78799       27.01604
C        110.63036        1.47742       26.41566
C        110.96235        1.49959       24.92748
O        111.17095        0.43119       24.37253
H        109.45371        2.98523       27.37521
H        109.70714        0.86773       26.52996
H        111.44653        0.96672       26.96981
N        111.01273        2.65942       24.21443
C        111.29686        2.75613       22.78514
C        110.09660        3.39864       22.10835
O        109.14759        3.74329       22.79671
C        112.57252        3.62710       22.57892
C        113.79205        3.07662       23.32558
O        112.89790        3.77129       21.21966
H        110.81638        3.54006       24.69111
H        111.46020        1.74905       22.34346
H        112.36861        4.64319       22.98365
H        113.08837        2.86541       20.85873
H        114.66118        3.74764       23.15644
H        113.60061        3.03103       24.41528
H        114.04546        2.05956       22.95967
N        110.05962        3.60574       20.76187
C        108.94242        4.29669       20.12834
C        107.70338        3.44271       20.30243
O        106.70225        3.94086       20.79975
C        109.19032        4.63549       18.62298
C        110.55848        5.34888       18.40876
C        108.03977        5.54813       18.13050
C        110.87172        5.65546       16.94237
H        110.83629        3.26583       20.18703
H        108.81179        5.27874       20.63896
H        109.19529        3.69238       18.03391
H        111.38516        4.69674       18.74722
H        110.60416        6.28941       18.99972
H        108.12318        5.77620       17.05059
H        107.05001        5.07026       18.27691
H        108.04669        6.51005       18.69232
H        111.89681        6.07590       16.86640
H        110.82711        4.72451       16.33757
H        110.17399        6.40610       16.52208
N        107.74036        2.11477       19.97971
C        106.60983        1.21429       20.17034
C        106.28265        0.51863       18.86225
O        107.09556        0.54679       17.94614
C        106.92931        0.17070       21.27566
C        107.43991        0.81688       22.57248
O        105.80520       -0.62743       21.54967
H        108.62411        1.71555       19.62500
H        105.72073        1.80325       20.48471
H        107.74409       -0.49709       20.91795
H        105.12277       -0.04573       21.97825
H        106.70605        1.54926       22.97065
H        107.63206        0.03811       23.33982
H        108.40051        1.32984       22.38167
N        105.07715       -0.09005       18.68920
C        104.68900       -0.73692       17.44422
C        103.68536        0.13812       16.73089
O        103.98258        0.56064       15.62149
C        104.18193       -2.18084       17.69809
C        103.76538       -2.87487       16.39594
O        103.08791       -2.19339       18.57928
H        104.38084       -0.02718       19.44720
H        105.56875       -0.82926       16.76634
H        105.01964       -2.77979       18.12855
H        103.45261       -2.26011       19.50016
H        103.44319       -3.91615       16.60886
H        102.91390       -2.34204       15.91975
H        104.61474       -2.90579       15.68126
N        102.48162        0.45321       17.29125
C        101.48967        1.26321       16.59756
C        101.13880        2.49880       17.41270
O        101.47783        2.57466       18.58611
C        100.27358        0.35768       16.29737
C         99.24499        0.97432       15.33625
C         98.16980       -0.02514       14.88474
C         97.22713       -0.45433       16.01846
N         96.18869       -1.35182       15.51286
H        102.24248        0.08453       18.22319
H        101.90788        1.61400       15.62957
H         99.79686        0.04774       17.25186
H        100.67031       -0.55473       15.79829
H         99.78924        1.30162       14.42322
H         98.74316        1.85059       15.79294
H         98.65526       -0.91777       14.43161
H         97.56029        0.47046       14.09835
H         96.74634        0.44961       16.45444
H         97.79377       -0.97375       16.82027
H         95.63505       -0.87664       14.76305
H         96.62287       -2.22328       15.13058
H         95.54491       -1.60787       16.29569
N        100.47794        3.53198       16.82167
C        100.05552        4.73961       17.51983
C        101.22783        5.47497       18.16927
O        101.16500        5.65821       19.37691
C         99.23847        5.63998       16.56093
C         98.66245        6.88915       17.23816
C         97.81651        7.66481       16.26775
O         98.30773        8.11645       15.24498
O         96.50879        7.86267       16.52066
H        100.25832        3.45270       15.81817
H         99.35261        4.43282       18.32863
H         98.38884        5.03391       16.17299
H         99.84768        5.95617       15.69194
H         99.48384        7.54321       17.60124
H         98.03820        6.58481       18.10588
N        102.32769        5.94316       17.50689
C        102.61880        5.78180       16.09786
H        103.59338        5.26162       15.98976
H        101.87105        5.18503       15.55477
H        102.69348        6.78184       15.62227
H        103.03820        6.45095       18.05728
Ca       110.00641       14.22759       24.22622
O        108.49031       14.45214       26.97958
H        108.11950       14.49973       27.89598
H        109.40201       14.08736       27.10158
O        108.35299       17.01195       25.06631
H        107.51287       16.98662       25.58992
H        108.05609       17.04223       24.12218

Ca 1.0



