%chk=apoCaM-CA-Ng.loop2.water4.frame326.chk
%nprocshared=20
%mem=10GB
%nosave
#b3lyp/svp scf=(tight,noincore,xqc) Test 
#IOP(5/87=12) Density=Current Pop=(MK,readradii) iop(6/33=2) iop(6/42=6)

apoCaM-CA-Ng.loop2.water4.frame326 

   -2  1 
C         45.08332       67.00768       80.31154
C         45.37895       68.10240       81.29651
O         45.75450       67.80941       82.42170
H         44.02400       67.07605       79.98492
H         45.74382       67.11122       79.42520
H         45.24958       66.00729       80.76577
N         45.23121       69.40553       80.92849
C         45.48751       70.52944       81.82796
C         44.56081       70.48735       83.03310
O         43.35087       70.43110       82.85784
C         45.36754       71.88538       81.09674
C         43.98178       72.21683       80.60465
O         43.34833       73.30595       81.07985
O         43.43025       71.51993       79.76864
H         44.94341       69.59358       79.95702
H         46.54494       70.46221       82.16900
H         46.07286       71.90138       80.23789
H         45.68545       72.68051       81.80679
N         45.07253       70.50161       84.29734
C         44.24396       70.36295       85.49181
C         43.55886       69.01889       85.45089
O         42.34523       68.95174       85.57930
C         45.10031       70.47309       86.75770
H         46.09489       70.58120       84.41238
H         43.48935       71.18058       85.53241
H         45.59142       71.46890       86.79102
H         44.45792       70.37199       87.65917
H         45.88375       69.68647       86.78515
N         44.30175       67.91068       85.17642
C         43.76893       66.57960       84.95377
C         43.28708       65.97901       86.24980
O         42.12692       65.61178       86.37626
C         42.72839       66.59263       83.80893
C         42.51417       65.23306       83.22053
O         41.28733       64.68837       83.10852
O         43.46746       64.64265       82.73532
H         45.31796       68.02628       85.04044
H         44.62453       65.95063       84.61492
H         43.13274       67.21041       82.97883
H         41.76595       67.04200       84.12887
N         44.19074       65.80500       87.25259
C         43.89124       65.14726       88.50727
C         44.57970       63.80033       88.59424
O         44.43323       63.15423       89.62171
H         45.16805       66.09916       87.09623
H         42.80045       64.96748       88.62083
H         44.21521       65.80653       89.34112
N         45.29814       63.28315       87.54742
C         45.87228       61.94564       87.54903
C         47.37526       62.03525       87.33429
O         47.81116       62.48221       86.28229
C         45.13288       61.12021       86.47131
C         45.52900       59.66661       86.40793
N         46.74083       59.28691       85.94176
O         44.72262       58.81396       86.74921
H         45.40453       63.82293       86.67638
H         45.68126       61.45028       88.52576
H         45.24775       61.57793       85.46454
H         44.05040       61.16767       86.73141
H         47.42432       59.97853       85.60703
H         46.98586       58.28769       85.88527
N         48.22862       61.66032       88.33002
C         49.67788       61.73451       88.23134
C         50.23198       60.66238       87.32548
O         49.97373       59.49572       87.58434
H         47.83372       61.34914       89.23025
H         50.10887       61.54235       89.23754
H         49.98870       62.75685       87.92454
N         51.02571       60.97964       86.26138
C         51.61050       59.97222       85.37262
C         51.00901       60.04528       83.97507
O         51.36995       59.22409       83.14070
C         53.16072       60.09190       85.34643
C         53.69531       61.36060       84.65810
O         53.68335       59.97807       86.64718
H         51.21733       61.97436       86.06995
H         51.37560       58.95434       85.75246
H         53.55916       59.23599       84.75834
H         53.49701       60.82777       87.12681
H         53.34401       62.28238       85.16520
H         54.80605       61.35345       84.67297
H         53.37962       61.38262       83.59602
N         50.07692       60.98570       83.65093
C         49.43890       61.10822       82.34905
C         47.94669       60.95257       82.57440
O         47.41763       61.69033       83.39858
C         49.76557       62.50590       81.73818
C         51.29810       62.75056       81.70626
C         49.15142       62.62432       80.32992
C         51.69548       64.15088       81.23546
H         49.78387       61.67575       84.35734
H         49.80655       60.32656       81.64603
H         49.31739       63.28865       82.39107
H         51.80030       61.98843       81.07147
H         51.69116       62.66176       82.73870
H         49.30903       63.63569       79.90610
H         49.60264       61.87264       79.64675
H         48.05457       62.46159       80.36255
H         51.41654       64.32108       80.17712
H         51.21578       64.92131       81.87642
H         52.79755       64.26542       81.31571
N         47.19045       60.04977       81.88105
C         45.75531       59.90974       82.12403
C         45.30104       58.45504       82.27767
O         44.10706       58.23195       82.41484
C         44.97071       60.60636       80.99034
C         43.56826       60.99175       81.41009
O         43.19436       60.85665       82.56575
O         42.74073       61.59248       80.54111
H         47.62943       59.51079       81.11754
H         45.50211       60.43978       83.06705
H         44.97357       59.97164       80.08026
H         45.46889       61.56888       80.73986
N         46.17951       57.40920       82.27837
C         45.73640       56.02032       82.38162
C         45.04893       55.60251       81.07686
O         45.68380       55.74744       80.04170
C         46.95278       55.10085       82.63719
C         46.53160       53.68284       82.94360
C         45.81693       53.39668       84.12175
C         46.85145       52.63457       82.06578
C         45.42080       52.08790       84.40882
C         46.45117       51.32600       82.35617
C         45.73594       51.05317       83.52564
H         47.19050       57.59725       82.23623
H         45.07397       55.94295       83.26694
H         47.53500       55.47350       83.50840
H         47.62371       55.13686       81.75049
H         45.56562       54.18689       84.81863
H         47.40191       52.82988       81.15440
H         44.86929       51.87670       85.31619
H         46.69490       50.52261       81.67369
H         45.42733       50.04012       83.74875
N         43.78917       55.05741       81.01210
C         43.17613       54.58648       79.76849
C         42.81778       55.66122       78.75055
O         42.28819       55.30976       77.70540
C         41.88601       53.89984       80.23564
C         42.27430       53.41110       81.61347
C         43.00945       54.63236       82.15472
H         43.86609       53.83655       79.31925
H         41.09036       54.66646       80.39109
H         41.49733       53.12811       79.53666
H         41.42576       53.06707       82.24117
H         43.00278       52.57522       81.49480
H         42.28631       55.43745       82.41288
H         43.59965       54.33683       83.03900
N         43.03186       56.98396       78.99520
C         42.61481       58.05656       78.10043
C         43.81085       58.81191       77.53719
O         43.59563       59.77034       76.80697
C         41.67681       58.99791       78.88340
C         40.34753       58.31669       79.24115
C         39.48156       59.21071       80.08269
O         39.13750       60.30766       79.67195
O         39.06255       58.79312       81.29187
H         43.48181       57.27145       79.87448
H         42.06109       57.66848       77.21731
H         41.44645       59.90293       78.27918
H         42.19137       59.30875       79.81255
H         40.53607       57.37625       79.80199
H         39.80424       58.06727       78.30438
N         45.09632       58.42446       77.77758
C         46.22613       59.11198       77.19228
H         47.17124       58.61557       77.49964
H         46.15543       59.07712       76.08361
H         46.24800       60.16844       77.53217
H         45.29707       57.60822       78.36816
Ca        41.41094       63.10987       81.51553
O         40.42052       64.10848       78.96102
H         40.82981       64.79260       79.54893
H         39.47207       64.07612       79.24326
O         38.25249       62.99832       82.37947
H         38.36284       63.60462       81.60446
H         37.70117       63.51385       83.02038
O         40.49464       59.87575       84.00200
H         41.34423       59.78158       84.50133
H         40.45806       59.06877       83.43158
O         41.16758       62.52743       85.10014
H         42.11935       62.66219       85.33735
H         40.66987       62.73367       85.93058

Ca 1.0



