%chk=apoCaM-CA-Ng.loop3.water5.frame329.chk
%nprocshared=20
%mem=10GB
%nosave
#b3lyp/svp scf=(tight,noincore,xqc) Test 
#IOP(5/87=12) Density=Current Pop=(MK,readradii) iop(6/33=2) iop(6/42=6)

apoCaM-CA-Ng.loop3.water5.frame329 

   0  1 
C         70.45668       47.03558       71.64646
C         71.44069       46.83765       70.53317
O         71.17350       46.06065       69.62951
H         69.55140       46.41079       71.49177
H         70.92968       46.74280       72.60812
H         70.15638       48.10263       71.69888
N         72.62458       47.51144       70.55218
C         73.68593       47.35551       69.56445
C         74.21119       45.92686       69.59935
O         74.24332       45.25174       68.57869
C         73.21556       47.83193       68.16607
C         74.31563       47.89242       67.13461
O         74.05295       48.26033       66.00102
O         75.58631       47.56300       67.44140
H         72.80232       48.15967       71.33535
H         74.52338       48.02160       69.87248
H         72.80088       48.85867       68.26524
H         72.41145       47.16925       67.78511
N         74.64837       45.40726       70.78349
C         75.23461       44.07387       70.91663
C         74.28418       42.92461       70.58432
O         74.73238       41.78639       70.61984
C         75.82005       43.88397       72.33654
C         74.76332       43.76790       73.45380
C         75.45291       43.63893       74.81858
C         74.44490       43.39754       75.94929
N         75.12900       43.30340       77.23958
H         74.61407       46.01864       71.61378
H         76.09118       44.02577       70.20833
H         76.50231       44.73628       72.54941
H         76.43167       42.95481       72.34709
H         74.14090       42.86422       73.27321
H         74.09760       44.65746       73.46439
H         76.02380       44.57149       75.02252
H         76.16312       42.78357       74.79468
H         73.89710       42.44798       75.75552
H         73.70660       44.22877       75.98477
H         75.61145       44.20617       77.45521
H         74.42707       43.10753       77.98915
H         75.82985       42.52681       77.22233
N         72.97085       43.12506       70.26906
C         72.04184       42.03621       69.96931
C         72.53108       41.21260       68.77644
O         73.44411       41.63750       68.08038
C         70.63014       42.65395       69.76286
C         69.49607       41.69078       69.57535
O         68.51139       41.62380       70.49176
O         69.40935       41.03163       68.55688
H         72.60162       44.08223       70.27254
H         72.01667       41.37127       70.86044
H         70.64409       43.35384       68.89894
H         70.39895       43.24997       70.67347
N         72.00207       39.98222       68.52081
C         72.44468       39.12709       67.43102
C         72.24260       39.79493       66.09597
O         73.20307       39.93213       65.35140
H         71.27011       39.61154       69.14353
H         71.86006       38.18360       67.44970
H         73.51632       38.86423       67.57180
N         71.01464       40.26955       65.74637
C         70.75301       40.98832       64.50598
C         70.43332       42.45544       64.79343
O         69.62282       43.05232       64.10157
C         69.66249       40.25694       63.68727
C         68.41020       39.98128       64.49094
N         67.94194       38.71665       64.62084
O         67.82103       40.90114       65.03668
H         70.23943       40.15655       66.41242
H         71.66827       41.01910       63.87567
H         70.07698       39.28768       63.33388
H         69.40838       40.85290       62.78528
H         68.41776       37.92335       64.16741
H         67.09464       38.52307       65.17220
N         71.13746       43.13081       65.74438
C         71.04664       44.56414       65.98431
C         69.75015       45.08151       66.58424
O         69.71762       46.26723       66.88219
H         71.84417       42.61774       66.28792
H         71.26755       45.10894       65.04131
H         71.84149       44.82584       66.71644
N         68.65029       44.30422       66.80085
C         67.45080       44.82034       67.46117
C         66.28903       43.86910       67.26542
O         66.41134       42.68992       67.56659
C         67.71701       45.02825       68.96925
C         66.47781       45.45901       69.72570
C         65.84032       46.67790       69.43749
C         65.94416       44.62895       70.72756
C         64.68909       47.05587       70.13816
C         64.79378       45.00766       71.42403
C         64.16164       46.22353       71.13130
O         63.04888       46.59927       71.79400
H         68.65887       43.32188       66.49627
H         67.16807       45.79501       67.00514
H         68.51196       45.78660       69.12141
H         68.08581       44.07046       69.38612
H         66.23122       47.33430       68.67083
H         66.41370       43.68331       70.96776
H         64.20343       47.99544       69.90658
H         64.39412       44.35381       72.18914
H         62.64952       46.04842       72.48277
N         65.09987       44.34564       66.79823
C         63.94709       43.48727       66.56880
C         64.19704       42.58606       65.36662
O         63.55033       41.55471       65.28859
C         62.64407       44.34524       66.43647
C         62.34273       45.15330       67.73348
C         61.40553       43.52618       66.03704
C         62.01152       44.30598       68.97093
H         65.00834       45.35769       66.62208
H         63.83035       42.82387       67.45193
H         62.80567       45.08336       65.61905
H         61.47457       45.82067       67.54102
H         63.20296       45.80751       67.98067
H         61.21285       42.70339       66.75491
H         60.51067       44.18248       65.98229
H         61.53862       43.09935       65.02784
H         61.79102       44.97731       69.82614
H         61.11115       43.68061       68.80256
H         62.86110       43.65776       69.26368
N         65.11948       42.88418       64.39915
C         65.40469       41.98424       63.27856
C         64.20670       41.71377       62.37977
O         64.28477       40.79647       61.57589
C         66.56958       42.51887       62.42888
O         66.22791       43.73219       61.80871
H         65.65962       43.75821       64.47856
H         65.70824       41.00993       63.71516
H         66.84585       41.78506       61.64250
H         67.46969       42.64437       63.06223
H         66.54295       44.46514       62.39993
N         63.07001       42.46000       62.46108
C         61.85601       42.21485       61.69511
C         61.23822       40.86911       62.04721
O         60.81179       40.13813       61.16164
C         62.08717       42.41094       60.18887
H         63.03724       43.25389       63.11474
H         61.11754       42.98289       62.01629
H         62.79831       41.66162       59.78428
H         61.12796       42.31249       59.63819
H         62.49647       43.42592       60.00016
N         61.14688       40.49260       63.35278
C         60.43332       39.31612       63.82902
C         59.54288       39.70248       64.99839
O         59.71103       40.78559       65.54612
C         61.42241       38.23497       64.26087
H         61.59342       41.08920       64.05543
H         59.80124       38.90761       63.00966
H         62.06406       37.95165       63.39925
H         62.07094       38.60431       65.08353
H         60.87931       37.32912       64.60525
N         58.53029       38.88645       65.40690
C         57.59200       39.23434       66.47391
C         57.03687       40.63820       66.24616
O         57.05710       41.45908       67.15465
C         58.26736       39.11155       67.86709
C         58.80029       37.70962       68.21358
C         57.71033       36.69558       68.43987
O         57.56833       36.12836       69.65380
O         56.96608       36.36175       67.53288
H         58.36284       38.01185       64.88492
H         56.73659       38.53068       66.42438
H         57.55438       39.41425       68.66610
H         59.12720       39.81528       67.90010
H         59.37298       37.80101       69.16261
H         59.50142       37.35137       67.43013
N         56.59350       41.00571       65.01333
C         56.16166       42.35771       64.73237
H         55.26477       42.60436       65.33701
H         56.97927       43.07274       64.97455
H         55.91754       42.46197       63.65444
H         56.61434       40.32537       64.23898
Ca        66.98741       39.76021       67.94730
O         69.22131       37.92433       67.59844
H         69.52983       37.30165       68.30285
H         69.14565       37.36569       66.78525
O         65.60072       37.20121       68.61865
H         64.95935       36.72589       68.03327
H         65.19863       37.15216       69.52190
O         64.84598       40.66514       69.75280
H         64.06106       41.26576       69.80442
H         64.59627       39.87656       70.29718
O         64.59697       39.22470       66.37760
H         65.24950       39.79148       65.89480
H         64.71473       38.32581       65.98249
O         67.76060       38.66490       70.73176
H         67.50187       37.83981       71.21353
H         68.72861       38.55703       70.55318

Ca 1.0



