%chk=apoCaM-CA-Ng.loop3.water5.frame277.chk
%nprocshared=20
%mem=10GB
%nosave
#b3lyp/svp scf=(tight,noincore,xqc) Test 
#IOP(5/87=12) Density=Current Pop=(MK,readradii) iop(6/33=2) iop(6/42=6)

apoCaM-CA-Ng.loop3.water5.frame277 

   0  1 
C         20.33217       19.95521       13.75864
C         20.34300       19.00289       12.60211
O         19.30343       18.45644       12.27594
H         20.69706       20.95215       13.44030
H         19.30831       20.05414       14.17938
H         20.99847       19.55678       14.55474
N         21.51200       18.73426       11.95592
C         21.69147       17.70962       10.92858
C         21.44529       16.34152       11.54288
O         20.69303       15.54163       11.00141
C         20.83118       17.96221        9.66436
C         21.09834       19.28164        8.99336
O         20.48119       19.57073        7.98091
O         22.00751       20.14748        9.48243
H         22.35715       19.24423       12.25645
H         22.76153       17.72483       10.62303
H         19.75318       17.91272        9.91687
H         21.04094       17.15903        8.92449
N         22.04316       16.03435       12.73091
C         21.85346       14.77192       13.44196
C         20.40491       14.47105       13.77932
O         20.14850       13.35224       14.20715
C         22.63750       14.79626       14.77127
C         24.14565       14.66078       14.56825
C         24.87253       14.84082       15.91142
C         26.32383       14.34362       15.87550
N         26.38398       12.87779       15.85025
H         22.65460       16.74838       13.15623
H         22.20711       13.94111       12.79144
H         22.33852       13.93602       15.41200
H         22.38049       15.73074       15.32093
H         24.54386       15.40584       13.84525
H         24.30489       13.64950       14.14499
H         24.35252       14.29850       16.73097
H         24.84975       15.92612       16.15783
H         26.82981       14.69016       16.80321
H         26.86473       14.77590       15.00498
H         25.94086       12.48682       14.99049
H         27.38256       12.57270       15.87325
H         25.90107       12.48976       16.69447
N         19.40506       15.38801       13.65202
C         18.02895       15.05597       13.98358
C         17.50338       13.98770       13.02753
O         18.13051       13.72361       12.00923
C         17.16164       16.34129       13.98187
C         15.81636       16.12421       14.59997
O         14.67029       16.39798       13.94618
O         15.75490       15.71036       15.74704
H         19.62906       16.34530       13.36671
H         18.04365       14.64903       15.01961
H         17.06900       16.75377       12.96106
H         17.66906       17.10802       14.60658
N         16.36589       13.30262       13.31518
C         15.81179       12.27715       12.44802
C         15.40014       12.85776       11.11915
O         15.78875       12.32568       10.08925
H         15.87356       13.50019       14.19678
H         14.90985       11.85164       12.93037
H         16.53735       11.44413       12.31340
N         14.62431       13.97722       11.07852
C         14.15992       14.60512        9.84548
C         14.84623       15.95082        9.60485
O         14.49113       16.63917        8.65874
C         12.61655       14.68235        9.89422
C         12.05723       15.60495       10.95257
N         12.12379       16.94836       10.80792
O         11.48949       15.13265       11.92630
H         14.36541       14.42419       11.97192
H         14.41260       13.96886        8.96936
H         12.25438       13.64840       10.09347
H         12.20380       14.98982        8.91069
H         12.54722       17.37743        9.97548
H         11.70352       17.56874       11.51077
N         15.89584       16.35017       10.37848
C         16.62694       17.59514       10.21186
C         15.89571       18.79333       10.78032
O         14.71602       18.70605       11.08685
H         16.25647       15.71168       11.09819
H         16.95047       17.75133        9.16007
H         17.54921       17.49647       10.81441
N         16.58988       19.94606       11.01193
C         16.01814       21.14947       11.62976
C         15.47971       20.87043       13.03096
O         15.67144       19.78293       13.55531
C         17.10464       22.24740       11.74472
C         17.63118       22.69364       10.40391
C         18.87848       22.23951        9.94414
C         16.88930       23.58435        9.61016
C         19.36723       22.65515        8.70343
C         17.39053       24.01466        8.37657
C         18.62623       23.54678        7.91604
O         19.09164       23.95939        6.71979
H         17.58708       19.95133       10.75032
H         15.17545       21.50498       10.99701
H         17.93454       21.82766       12.35635
H         16.74132       23.14808       12.28606
H         19.46591       21.55088       10.53898
H         15.93340       23.95982        9.95465
H         20.32305       22.28607        8.35596
H         16.81864       24.71272        7.77794
H         19.93703       23.65035        6.36332
N         14.76920       21.83908       13.68442
C         14.17099       21.65935       15.00514
C         12.65982       21.72897       14.86121
O         11.99222       20.78609       15.25949
C         14.66753       22.73206       16.02502
C         16.21346       22.79568       16.08045
C         14.09945       22.42318       17.43134
C         16.73870       23.90099       17.00511
H         14.61574       22.73742       13.20467
H         14.44397       20.66203       15.41889
H         14.29642       23.72712       15.69338
H         16.60192       23.01439       15.06360
H         16.62593       21.81702       16.40943
H         13.00372       22.34247       17.42045
H         14.49817       21.45969       17.81430
H         14.33184       23.22833       18.15531
H         16.33487       24.88833       16.69407
H         16.46935       23.71473       18.06454
H         17.84608       23.93650       16.95154
N         12.04284       22.80871       14.29228
C         10.58845       22.90698       14.19210
C          9.95056       23.11210       15.55786
O          8.76243       22.86107       15.69384
C         10.16893       24.05092       13.26290
O         10.69927       23.83298       11.98475
H         12.62101       23.57183       13.90915
H         10.21219       21.95601       13.74973
H         10.54737       25.01594       13.66929
H          9.05705       24.07802       13.20218
H         10.34345       24.56012       11.41138
N         10.68922       23.56063       16.61581
C         10.19757       23.69125       17.98067
C          9.69369       22.35631       18.50370
O          8.72984       22.33360       19.26023
C          9.14857       24.80722       18.09126
H         11.67578       23.80681       16.46598
H         11.06126       23.99164       18.61620
H          8.85294       24.95200       19.15261
H          9.57190       25.76290       17.71680
H          8.23946       24.56381       17.50358
N         10.28701       21.19134       18.11240
C          9.84337       19.87833       18.54488
C         10.96590       19.12840       19.22661
O         12.12098       19.52888       19.14042
C          9.31802       19.08934       17.34380
H         11.07599       21.22688       17.45709
H          9.01539       19.98248       19.27925
H         10.11544       18.96533       16.58203
H          8.95887       18.08617       17.65553
H          8.47155       19.63717       16.87695
N         10.66081       18.05514       20.00530
C         11.61021       17.27616       20.79209
C         12.34654       18.08049       21.86931
O         13.13366       17.47263       22.58248
C         12.60708       16.49673       19.90299
C         11.89413       15.59917       18.87204
C         12.81462       14.53016       18.35365
O         13.13803       14.40568       17.05360
O         13.26473       13.71043       19.13863
H          9.66922       17.77603       20.07314
H         11.02301       16.50477       21.33970
H         13.19158       15.84799       20.59298
H         13.32598       17.16771       19.38707
H         11.47555       16.21887       18.05067
H         11.05528       15.06033       19.36294
N         12.14939       19.41844       22.07411
C         12.86037       20.18507       23.07827
H         13.44212       20.98950       22.58006
H         12.12853       20.64957       23.77108
H         13.56354       19.56550       23.67271
H         11.47079       19.94704       21.51481
Ca        12.95123       15.72519       15.23411
O         12.48942       18.57638       13.67306
H         11.98908       19.24886       13.14596
H         13.38530       18.56063       13.25903
O         10.47200       13.98024       14.90826
H         10.32635       13.73562       15.85644
H          9.56926       14.18427       14.55819
O         10.03801       17.09292       14.51034
H          9.18192       16.72679       14.84609
H          9.79456       17.96773       14.11579
O         13.16115       13.07039       14.24066
H         13.68905       12.75875       15.01812
H         12.56405       12.31213       14.02495
O         13.14475       17.98641       16.88977
H         13.90679       18.61023       16.97569
H         12.46648       18.48325       16.37008

Ca 1.0



