%chk=apoCaM-CA-Ng.loop3.water5.frame448.chk
%nprocshared=20
%mem=10GB
%nosave
#b3lyp/svp scf=(tight,noincore,xqc) Test 
#IOP(5/87=12) Density=Current Pop=(MK,readradii) iop(6/33=2) iop(6/42=6)

apoCaM-CA-Ng.loop3.water5.frame448 

   0  1 
C         73.34830       50.28063       78.57543
C         72.52222       49.21339       77.92360
O         71.31964       49.38628       77.79483
H         74.13011       50.63288       77.87094
H         72.71476       51.14382       78.87223
H         73.83444       49.86704       79.48430
N         73.11697       48.06359       77.49532
C         72.40769       46.94371       76.88159
C         71.41386       46.30692       77.85016
O         70.46423       45.67653       77.40448
C         71.75737       47.34407       75.53379
C         72.74443       47.85064       74.51242
O         72.34335       48.19201       73.41152
O         74.06274       47.92327       74.78385
H         74.13592       47.96399       77.62508
H         73.15108       46.14774       76.65128
H         70.99070       48.12422       75.69914
H         71.25279       46.45702       75.09321
N         71.63095       46.34498       79.19893
C         70.77629       45.65172       80.16412
C         69.36198       46.21393       80.21967
O         68.51209       45.58189       80.83236
C         71.38677       45.72923       81.58774
C         72.78399       45.09046       81.72038
C         72.75362       43.56395       81.53900
C         74.13553       42.91153       81.70681
N         75.06104       43.28753       80.63522
H         72.46079       46.84660       79.54446
H         70.69845       44.59061       79.84848
H         70.71114       45.24054       82.32382
H         71.46784       46.80378       81.86755
H         73.16310       45.30685       82.74315
H         73.48223       45.56114       81.00294
H         72.35760       43.28551       80.54157
H         72.07630       43.14219       82.31366
H         73.99628       41.80827       81.67944
H         74.56856       43.17693       82.69673
H         75.95202       42.75407       80.75455
H         74.64949       43.04601       79.70414
H         75.28549       44.30640       80.67120
N         69.04224       47.41563       79.66349
C         67.70721       48.00277       79.75347
C         66.70633       47.19947       78.91827
O         67.11145       46.32243       78.16641
C         67.82884       49.49374       79.35576
C         66.59249       50.34249       79.48145
O         66.55250       51.24551       80.30203
O         65.57185       50.19175       78.62122
H         69.79035       47.96616       79.22220
H         67.39173       47.97143       80.82034
H         68.22371       49.56451       78.32393
H         68.59873       49.93661       80.02761
N         65.36688       47.41687       79.04393
C         64.34634       46.66979       78.32305
C         64.44344       46.85180       76.82489
O         64.56539       45.86410       76.11520
H         65.04171       48.11812       79.72278
H         63.34568       47.02956       78.64706
H         64.42168       45.59174       78.58607
N         64.40739       48.09954       76.27962
C         64.50634       48.36885       74.84528
C         65.86086       48.96538       74.48071
O         66.04268       49.37904       73.34258
C         63.32820       49.26199       74.39195
C         63.31503       50.67343       74.93989
N         62.30673       51.50741       74.59890
O         64.20273       51.07504       75.67794
H         64.34579       48.90125       76.91978
H         64.42087       47.42329       74.26593
H         62.37937       48.75897       74.68033
H         63.34733       49.33700       73.28290
H         61.55145       51.19155       73.97328
H         62.27602       52.46917       74.96319
N         66.88826       48.96246       75.37352
C         68.22062       49.44444       75.07936
C         68.31575       50.94610       75.14010
O         68.85418       51.55813       74.23163
H         66.75942       48.52789       76.29820
H         68.60538       49.01530       74.12776
H         68.88622       49.08758       75.89286
N         67.87538       51.58540       76.25914
C         68.12943       52.97986       76.57588
C         66.81909       53.73350       76.69912
O         66.01094       53.41196       77.55603
C         68.89976       53.01647       77.91224
C         69.15005       54.40956       78.42353
C         70.00329       55.28617       77.73748
C         68.52597       54.83807       79.60736
C         70.22918       56.57509       78.23149
C         68.74778       56.12560       80.09488
C         69.60093       57.00013       79.40814
O         69.82070       58.24779       79.86797
H         67.37505       51.03369       76.96222
H         68.75491       53.44964       75.78645
H         69.86763       52.47794       77.81301
H         68.29915       52.46117       78.66267
H         70.49709       54.96946       76.82741
H         67.85945       54.17884       80.15063
H         70.89206       57.24425       77.69859
H         68.25203       56.44211       81.00395
H         69.39760       58.57889       80.67323
N         66.55420       54.75619       75.84155
C         65.33213       55.54915       75.86663
C         64.46921       55.10792       74.70168
O         63.31717       54.75894       74.92281
C         65.67942       57.06927       75.80892
C         66.60210       57.52835       76.96929
C         64.41262       57.94286       75.75790
C         65.99806       57.40085       78.37152
H         67.24045       54.95982       75.10092
H         64.74933       55.36105       76.79485
H         66.24172       57.25928       74.86740
H         66.86483       58.59730       76.80750
H         67.54974       56.95105       76.93824
H         64.68512       59.01859       75.70783
H         63.82773       57.71551       74.85125
H         63.76062       57.77201       76.63915
H         65.07397       58.00514       78.47063
H         65.78012       56.34215       78.61813
H         66.72253       57.79001       79.11566
N         64.96962       55.04870       73.43695
C         64.18807       54.58868       72.29535
C         63.04163       55.53263       71.99354
O         61.98921       55.07099       71.58034
C         65.07479       54.43167       71.05330
O         65.64751       55.66055       70.69857
H         65.95560       55.31101       73.28424
H         63.78219       53.57482       72.51965
H         64.46140       54.04527       70.20897
H         65.87453       53.69245       71.29027
H         66.32740       55.45570       70.00580
N         63.17944       56.87351       72.21224
C         62.13938       57.86374       71.96946
C         60.83845       57.47088       72.64977
O         59.80097       57.44587       71.99510
C         61.97370       58.08715       70.45996
H         64.06739       57.22357       72.59815
H         62.48489       58.82763       72.40667
H         62.94617       58.38832       70.01516
H         61.62747       57.15961       69.95676
H         61.23795       58.89725       70.26924
N         60.82835       57.09737       73.95901
C         59.63071       56.64938       74.65025
C         59.41616       57.47029       75.89849
O         60.25845       57.43745       76.78869
C         59.75993       55.16603       75.00062
H         61.71763       57.08180       74.47971
H         58.73960       56.74495       73.99144
H         59.89527       54.57210       74.07126
H         60.63252       54.98905       75.66315
H         58.83933       54.81278       75.51265
N         58.29832       58.23726       76.02956
C         57.97281       59.02614       77.20894
C         59.06631       60.05223       77.46868
O         59.66543       60.05873       78.53462
C         57.67577       58.08064       78.39962
C         57.01959       58.80059       79.58865
C         56.69104       57.82852       80.68629
O         57.22696       57.98701       81.91131
O         55.92818       56.89790       80.47801
H         57.62529       58.26731       75.24720
H         57.03038       59.57687       76.99228
H         58.60147       57.56055       78.72853
H         56.95699       57.30929       78.04316
H         56.07722       59.28644       79.25433
H         57.69350       59.58455       79.98980
N         59.38735       60.94713       76.49220
C         60.42531       61.94910       76.63263
H         61.20041       61.78539       75.85470
H         59.98324       62.95746       76.49273
H         60.91685       61.91692       77.62761
H         58.87835       60.91445       75.59638
Ca        63.81311       51.60389       78.65902
O         64.62486       53.86327       80.56554
H         65.17968       54.42971       81.15818
H         63.72814       54.28272       80.58669
O         61.57028       49.89252       77.52899
H         61.13311       50.72975       77.23132
H         60.92416       49.48396       78.15746
O         61.50334       52.34366       80.49011
H         60.51910       52.34247       80.38562
H         61.66041       51.94140       81.38101
O         63.25145       49.72719       80.90269
H         62.69314       49.18115       80.29378
H         63.44771       49.12976       81.66674
O         62.29161       54.08792       77.73201
H         61.51702       53.47378       77.67313
H         61.94352       54.88399       78.20647

Ca 1.0



