%chk=apoCaM-CA-Ng.loop3.water7.frame55.chk
%nprocshared=20
%mem=10GB
%nosave
#b3lyp/svp scf=(tight,noincore,xqc) Test 
#IOP(5/87=12) Density=Current Pop=(MK,readradii) iop(6/33=2) iop(6/42=6)

apoCaM-CA-Ng.loop3.water7.frame55 

   0  1 
C         42.69553       38.19217       65.80554
C         41.71503       37.12648       65.41695
O         41.75492       36.05749       66.00440
H         43.72838       37.81265       65.65597
H         42.56308       39.10935       65.19458
H         42.55595       38.45342       66.87567
N         40.81058       37.33951       64.41838
C         39.83583       36.34810       63.97218
C         40.55645       35.10762       63.47031
O         40.36262       34.01649       63.99052
C         38.79201       36.03059       65.06667
C         38.01928       37.23524       65.55075
O         38.22938       38.35134       65.10110
O         37.06909       37.07403       66.49098
H         40.81894       38.24744       63.92885
H         39.26809       36.77129       63.11258
H         39.29374       35.54873       65.92299
H         38.05603       35.30569       64.65597
N         41.40417       35.22661       62.41467
C         42.09718       34.09619       61.80235
C         43.18043       33.45926       62.66830
O         43.73240       32.45720       62.23231
C         42.73505       34.52594       60.46054
C         43.84304       35.59725       60.61538
C         44.45733       36.01433       59.27311
C         45.27787       34.89260       58.61715
N         45.86105       35.34715       57.35676
H         41.48106       36.16006       61.98602
H         41.33199       33.32133       61.57333
H         41.93608       34.92181       59.79650
H         43.15096       33.61718       59.98061
H         44.65231       35.23990       61.28837
H         43.41249       36.51259       61.06912
H         45.13966       36.87206       59.46181
H         43.65089       36.35801       58.58908
H         44.64216       34.00723       58.41095
H         46.09327       34.58559       59.31015
H         45.10037       35.59963       56.68460
H         46.47804       36.17546       57.52084
H         46.43240       34.57347       56.94692
N         43.60290       34.00017       63.84747
C         44.75880       33.46661       64.57120
C         44.50714       32.03222       65.04461
O         43.37874       31.56382       64.98615
C         45.13926       34.46162       65.70724
C         46.46654       34.21592       66.37361
O         46.62250       33.27350       67.12403
O         47.49338       35.06283       66.17908
H         43.15794       34.86247       64.18874
H         45.60574       33.44901       63.84916
H         44.33630       34.51817       66.47517
H         45.21937       35.46421       65.23275
N         45.54107       31.25735       65.47669
C         45.40125       29.90325       65.99162
C         44.58122       29.88268       67.25731
O         43.63730       29.11030       67.34925
H         46.49391       31.63885       65.42997
H         46.41313       29.52031       66.24560
H         44.96281       29.23188       65.22147
N         44.87898       30.74395       68.27201
C         44.13337       30.82119       69.52249
C         42.65582       31.14675       69.29879
O         41.89855       31.03829       70.25401
C         44.74103       31.86335       70.50600
C         46.12059       31.50926       71.02898
N         47.24164       31.63812       70.27966
O         46.22773       31.12895       72.18450
H         45.66477       31.37422       68.12669
H         44.17943       29.81946       70.00455
H         44.06993       31.89477       71.39361
H         44.74683       32.88744       70.07101
H         47.23060       32.01386       69.32654
H         48.15721       31.39562       70.68031
N         42.16134       31.53023       68.08223
C         40.75069       31.75892       67.83170
C         40.26854       32.88439       68.68406
O         39.42493       32.65994       69.54103
H         42.79469       31.66771       67.29237
H         40.18757       30.82585       68.05238
H         40.58785       32.02059       66.76346
N         40.80763       34.12498       68.52953
C         40.52511       35.21466       69.44841
C         41.82368       35.61687       70.11781
O         42.87823       35.12306       69.73627
C         39.78831       36.34849       68.71038
C         38.95341       37.24926       69.58670
C         37.91147       36.69243       70.35201
C         39.14088       38.64054       69.59740
C         37.07443       37.50690       71.11326
C         38.29497       39.45741       70.35971
C         37.25681       38.89103       71.11714
O         36.42207       39.66343       71.84118
H         41.48909       34.27943       67.77090
H         39.86042       34.83224       70.24843
H         39.03564       35.86934       68.05614
H         40.49626       36.91430       68.06981
H         37.72975       35.62509       70.34492
H         39.92359       39.09500       69.00316
H         36.27254       37.05968       71.68771
H         38.43750       40.53038       70.35160
H         36.49382       40.62792       71.85671
N         41.80623       36.40592       71.21728
C         42.96874       36.54817       72.08386
C         42.81919       35.49806       73.17418
O         43.73281       34.70105       73.34423
C         43.12979       38.01740       72.55082
C         43.37027       38.90831       71.29789
C         44.30574       38.14184       73.54064
C         43.45673       40.40534       71.58958
H         40.89435       36.74593       71.55632
H         43.91036       36.29404       71.54177
H         42.19728       38.33639       73.06591
H         42.53308       38.77029       70.58020
H         44.30915       38.59248       70.78907
H         45.26087       37.83867       73.06023
H         44.40475       39.17879       73.91839
H         44.14387       37.50097       74.42805
H         44.32003       40.64633       72.24123
H         43.60019       40.95238       70.63306
H         42.51725       40.75742       72.06347
N         41.63943       35.33764       73.84596
C         41.39300       34.18512       74.71052
C         42.14103       34.26284       76.02728
O         42.12736       33.28198       76.75764
C         39.89054       34.00764       74.96069
O         39.23318       33.85415       73.73169
H         40.85791       35.97630       73.63924
H         41.73458       33.27299       74.16783
H         39.49967       34.90156       75.49590
H         39.72502       33.09455       75.57590
H         38.26240       33.84838       73.93355
N         42.84004       35.37791       76.38682
C         43.67285       35.47382       77.57411
C         44.73490       34.39378       77.53591
O         44.91703       33.67362       78.50921
C         42.82782       35.45451       78.85611
H         42.83585       36.19991       75.77075
H         44.19454       36.45672       77.53835
H         42.08560       36.28012       78.82840
H         42.28599       34.49330       78.97172
H         43.47971       35.60093       79.74366
N         45.45831       34.21518       76.39543
C         46.51711       33.22700       76.25592
C         47.80835       33.92394       75.88794
O         47.76602       35.11140       75.59954
C         46.11592       32.19662       75.20192
H         45.24766       34.81151       75.57914
H         46.67971       32.69802       77.22004
H         46.90294       31.42317       75.08138
H         45.17594       31.69204       75.51447
H         45.93956       32.69801       74.22714
N         48.99482       33.24132       75.91299
C         50.34078       33.79916       75.72276
C         50.39949       35.32406       75.69516
O         50.85334       35.91586       74.72521
C         51.03614       33.12037       74.52208
C         50.30545       33.27879       73.17914
C         51.07929       32.57910       72.09819
O         50.54124       31.52885       71.45363
O         52.20684       32.94832       71.80984
H         48.95587       32.23313       76.12944
H         50.93889       33.52402       76.61898
H         51.11288       32.03131       74.73880
H         52.07135       33.52014       74.44037
H         50.19195       34.34597       72.89875
H         49.29203       32.82829       73.25658
N         49.94869       36.02472       76.77394
C         49.92383       37.46917       76.80925
H         49.48293       37.81277       77.76960
H         50.95372       37.87086       76.71936
H         49.29492       37.85521       75.97814
H         49.57977       35.51201       77.59009
Ca        49.48106       34.51287       67.10859
O         49.12813       31.36936       65.90625
H         48.91148       30.92506       65.04841
H         48.60290       30.87258       66.58309
O         50.45785       37.15201       66.14723
H         50.67418       37.63975       66.98124
H         49.47484       37.23458       66.05984
O         51.84017       35.08705       68.97018
H         51.35370       34.51553       69.61571
H         52.62387       34.54540       68.70120
O         49.84075       34.00480       64.07951
H         50.72692       33.87688       63.65686
H         49.43899       34.76682       63.59137
O         50.75911       31.42003       68.45336
H         50.29074       32.21124       68.82063
H         50.17022       30.65626       68.67731
O         52.31180       32.85188       66.18809
H         52.86186       32.59425       66.97015
H         52.67706       33.72782       65.90608
O         48.44053       34.76999       69.91717
H         48.17116       34.58096       70.85064
H         47.62566       35.13704       69.49048

Ca 1.0



