%chk=apoCaM-CA-Ng.loop2.water3.frame187.chk
%nprocshared=20
%mem=10GB
%nosave
#b3lyp/svp scf=(tight,noincore,xqc) Test 
#IOP(5/87=12) Density=Current Pop=(MK,readradii) iop(6/33=2) iop(6/42=6)

apoCaM-CA-Ng.loop2.water3.frame187 

   -2  1 
C        109.33169       50.39803       18.51686
C        110.62827       51.01444       18.95176
O        111.46191       50.30548       19.49777
H        108.66593       51.14859       18.04104
H        109.52852       49.58235       17.79151
H        108.80879       49.97992       19.40368
N        110.85218       52.34836       18.77990
C        112.03781       53.02021       19.29475
C        111.78360       53.57482       20.68834
O        112.70911       54.15119       21.23382
C        112.49424       54.13898       18.33377
C        112.88908       53.64321       16.96706
O        113.27544       54.44280       16.12982
O        112.84005       52.33322       16.65419
H        110.09922       52.93073       18.38128
H        112.87711       52.29532       19.39995
H        113.38194       54.65086       18.76697
H        111.67881       54.88724       18.22753
N        110.57702       53.42148       21.32516
C        110.25752       53.79309       22.70375
C        110.91971       52.85855       23.70699
O        110.20447       52.10639       24.35242
C        110.51770       55.27332       22.99927
H        109.79875       52.98378       20.81323
H        109.15954       53.63888       22.82464
H        109.95854       55.90341       22.27586
H        110.16445       55.51559       24.02426
H        111.59392       55.52878       22.93985
N        112.26781       52.84170       23.89324
C        112.96508       51.93105       24.78891
C        113.92509       51.02981       24.01855
O        114.69731       50.33273       24.66285
C        113.68948       52.72441       25.90412
C        114.76058       53.67028       25.42333
O        116.03876       53.48259       25.80284
O        114.47786       54.63546       24.73221
H        112.84877       53.50188       23.37615
H        112.25197       51.25899       25.31192
H        114.15559       51.99238       26.60023
H        112.94037       53.30102       26.48836
N        113.91531       50.94756       22.64982
C        114.84377       50.10874       21.90873
C        114.73653       48.66499       22.33372
O        115.68911       48.16261       22.91397
H        113.23638       51.49184       22.10025
H        115.87367       50.47920       22.10602
H        114.65734       50.19250       20.81520
N        113.61248       47.93200       22.08405
C        113.44405       46.56918       22.57950
C        113.51189       45.57678       21.43873
O        112.69076       45.62989       20.53653
C        112.11915       46.42150       23.35840
C        112.00998       47.35098       24.57688
N        113.14672       47.20593       25.47900
O        111.87695       48.68277       24.18344
H        112.85094       48.35574       21.53067
H        114.26440       46.31626       23.28434
H        112.04237       45.37405       23.72233
H        111.25055       46.61043       22.68970
H        113.16401       46.22532       25.83939
H        113.00145       47.83981       26.29664
N        114.50380       44.64163       21.41950
C        114.68372       43.66611       20.36010
C        113.59112       42.62455       20.32042
O        113.06704       42.26024       21.36423
H        115.20064       44.63732       22.17998
H        115.62740       43.11143       20.55646
H        114.80292       44.17490       19.37991
N        113.30705       41.99197       19.14480
C        112.40149       40.84436       19.06298
C        110.93981       41.20441       19.32123
O        110.13588       40.28492       19.41322
C        112.55560       40.08868       17.71103
C        112.06947       40.87577       16.48254
O        113.88410       39.65483       17.53878
H        113.82739       42.28735       18.30661
H        112.71951       40.12465       19.85066
H        111.92716       39.17223       17.75638
H        114.42637       40.41642       17.20607
H        110.98792       41.08624       16.57387
H        112.62084       41.83091       16.36106
H        112.21292       40.26427       15.56676
N        110.51369       42.49768       19.43396
C        109.12456       42.87454       19.70060
C        109.02936       43.62024       21.02320
O        110.04996       43.80394       21.67831
C        108.48385       43.66876       18.50795
C        108.85447       45.17235       18.35044
C        108.65841       42.91318       17.18369
C        110.29649       45.51319       17.98295
H        111.20402       43.24683       19.33487
H        108.50541       41.95668       19.81136
H        107.38959       43.67928       18.70295
H        108.59204       45.71809       19.27848
H        108.21108       45.58883       17.54429
H        108.28769       41.87038       17.27987
H        108.08498       43.41253       16.37424
H        109.72358       42.88987       16.88797
H        110.60694       45.01486       17.04258
H        110.38006       46.61072       17.83497
H        110.98486       45.25759       18.79856
N        107.83784       44.11446       21.46682
C        107.72693       44.95130       22.65453
C        106.43584       44.66569       23.44221
O        106.12796       45.41322       24.35684
C        107.86191       46.41784       22.18580
C        108.16499       47.40988       23.27851
O        108.35407       48.57846       22.98123
O        108.28315       47.03116       24.56619
H        107.01158       44.03279       20.85521
H        108.59130       44.76489       23.33087
H        106.95857       46.71822       21.61190
H        108.74009       46.47912       21.50607
N        105.66068       43.56438       23.18512
C        104.45191       43.23962       23.94426
C        103.32270       44.20465       23.59768
O        102.93728       44.23079       22.43785
C        103.98571       41.80485       23.60050
C        102.75563       41.40609       24.38262
C        102.81300       41.26378       25.77971
C        101.53743       41.17812       23.71909
C        101.67019       40.90065       26.49880
C        100.39614       40.82094       24.44267
C        100.46243       40.68121       25.83114
H        105.96909       42.89156       22.47056
H        104.70479       43.25317       25.02413
H        104.79706       41.07566       23.81364
H        103.77687       41.75533       22.50830
H        103.74144       41.43041       26.31115
H        101.46714       41.28626       22.64386
H        101.72076       40.79002       27.57417
H         99.45981       40.65348       23.92623
H         99.57801       40.40279       26.38926
N        102.69922       44.99378       24.52713
C        101.58060       45.86938       24.21047
C        102.02128       47.04374       23.35266
O        101.27470       47.42108       22.45979
C        101.03267       46.25633       25.58919
C        102.26567       46.25786       26.46034
C        103.02342       45.03402       25.94117
H        100.75476       45.33562       23.68651
H        100.40239       47.17124       25.61452
H        100.41022       45.40475       25.95146
H        102.83714       47.17599       26.21292
H        102.08016       46.25672       27.55543
H        104.10464       45.18100       26.14475
H        102.66048       44.09276       26.40771
N        103.24096       47.63379       23.51725
C        103.70649       48.74001       22.68131
C        103.86695       48.33904       21.21434
O        104.08424       49.22144       20.39499
C        105.06690       49.26058       23.18495
C        105.01679       49.82674       24.61210
C        106.39068       50.22081       25.07267
O        107.02408       51.07570       24.47377
O        106.93205       49.62427       26.15190
H        103.86410       47.27412       24.25235
H        102.95896       49.56180       22.74391
H        105.44007       50.06051       22.50738
H        105.77382       48.41120       23.15260
H        104.62332       49.06849       25.31941
H        104.34729       50.71239       24.64192
N        103.80091       47.04127       20.80364
C        103.93762       46.65415       19.41753
H        104.92770       46.97108       19.02839
H        103.85695       45.54908       19.32641
H        103.12838       47.11757       18.81450
H        103.66646       46.29120       21.48645
Ca       110.04144       49.39230       25.33078
O        108.68528       51.68138       27.38152
H        108.63566       51.05259       28.14505
H        109.45176       52.27096       27.59287
O        111.56788       50.17585       27.77554
H        112.00167       50.95949       28.19648
H        112.10638       49.40069       28.07338
O        109.25306       47.89369       27.89358
H        109.98724       47.66113       28.51585
H        108.65925       47.10157       27.90092

Ca 1.0



