%chk=apoCaM-CA-Ng.loop2.water4.frame395.chk
%nprocshared=20
%mem=10GB
%nosave
#b3lyp/svp scf=(tight,noincore,xqc) Test 
#IOP(5/87=12) Density=Current Pop=(MK,readradii) iop(6/33=2) iop(6/42=6)

apoCaM-CA-Ng.loop2.water4.frame395 

   -2  1 
C         -1.97996       64.70515       30.43137
C         -3.25551       63.95598       30.17868
O         -4.32305       64.48238       30.45914
H         -1.42132       64.83319       29.48112
H         -2.18808       65.70761       30.86442
H         -1.35428       64.13418       31.14970
N         -3.21797       62.70537       29.63890
C         -4.42238       61.91363       29.40671
C         -5.09799       61.59368       30.73023
O         -4.47881       60.96408       31.57611
C         -4.12167       60.62132       28.61181
C         -3.26280       59.61568       29.33879
O         -2.00489       59.91988       29.70961
O         -3.70646       58.50573       29.58635
H         -2.29848       62.32517       29.37280
H         -5.10442       62.51475       28.76372
H         -3.62816       60.89052       27.65320
H         -5.09567       60.14281       28.36467
N         -6.35916       62.03666       30.98828
C         -7.03454       61.84429       32.26762
C         -7.20697       63.19367       32.94334
O         -6.73396       64.18683       32.40584
C         -8.35884       61.10935       32.03944
H         -6.85329       62.57987       30.26287
H         -6.42488       61.21912       32.95551
H         -9.03158       61.69493       31.37937
H         -8.15633       60.12404       31.56568
H         -8.87536       60.91285       33.00205
N         -7.85009       63.31313       34.14032
C         -7.89995       64.57200       34.87951
C         -9.27857       65.18594       34.75726
O         -9.94152       65.43137       35.75690
C         -7.49302       64.31970       36.34693
C         -6.15722       63.64299       36.45360
O         -6.07221       62.42255       37.01722
O         -5.15045       64.18634       36.02969
H         -8.30220       62.48552       34.55718
H         -7.19166       65.31106       34.44391
H         -8.25318       63.66065       36.82279
H         -7.46407       65.27972       36.90603
N         -9.78196       65.44825       33.51924
C        -11.11657       65.97061       33.30923
C        -11.28516       67.43563       33.65425
O        -12.41366       67.89406       33.54610
H         -9.22888       65.19521       32.68678
H        -11.83867       65.34852       33.88110
H        -11.37427       65.87363       32.23174
N        -10.24107       68.25549       33.99497
C        -10.42194       69.69315       34.20384
C         -9.79700       70.51288       33.08488
O        -10.00016       71.72052       33.09204
C         -9.83820       70.15404       35.55456
C        -10.45668       69.46122       36.73889
N         -9.68272       68.79104       37.62428
O        -11.66354       69.52946       36.91831
H         -9.28434       67.87547       34.04253
H        -11.50454       69.94809       34.19254
H        -10.02840       71.24350       35.67343
H         -8.73670       70.00052       35.55092
H         -8.66066       68.74023       37.50155
H        -10.10369       68.33480       38.44676
N         -9.04763       69.96050       32.08153
C         -8.50608       70.76581       30.99588
C         -7.52772       71.81533       31.47941
O         -7.16664       71.82327       32.64928
H         -8.87293       68.94614       32.05376
H         -9.35513       71.26793       30.48430
H         -7.99084       70.11686       30.25479
N         -7.08625       72.77638       30.61669
C         -6.20937       73.86317       31.05360
C         -4.79947       73.37621       31.37566
O         -4.03024       74.14971       31.92994
C         -6.17085       75.02977       30.02903
C         -5.44376       74.69446       28.71676
O         -7.47118       75.50931       29.78068
H         -7.45031       72.76386       29.65293
H         -6.65933       74.28509       31.98068
H         -5.60222       75.86828       30.48750
H         -7.90495       74.91599       29.11340
H         -5.91466       73.83576       28.19527
H         -5.46017       75.57744       28.04424
H         -4.38297       74.46015       28.92656
N         -4.38802       72.11781       31.04433
C         -3.06970       71.57614       31.33984
C         -3.25376       70.41724       32.28956
O         -4.06496       69.54121       32.01472
C         -2.35383       71.11289       30.03429
C         -2.16813       72.25773       29.00672
C         -0.99544       70.44850       30.33952
C         -1.34833       73.45577       29.50299
H         -5.03873       71.48413       30.55783
H         -2.42096       72.33035       31.83450
H         -2.98514       70.34059       29.53957
H         -3.16466       72.61603       28.68730
H         -1.66971       71.84633       28.10179
H         -0.31585       71.13869       30.88016
H         -1.13261       69.54387       30.96370
H         -0.50659       70.11998       29.39787
H         -1.25717       74.20130       28.68584
H         -1.84465       73.95607       30.35784
H         -0.32482       73.15081       29.80106
N         -2.47714       70.31715       33.40262
C         -2.55249       69.18601       34.31242
C         -2.45477       69.63495       35.78167
O         -2.32690       68.79322       36.65791
C         -1.44279       68.19875       33.89818
C         -1.66094       66.80490       34.40820
O         -2.76968       66.48843       35.10500
O         -0.85919       65.93082       34.12190
H         -1.71239       70.99929       33.53069
H         -3.52091       68.65785       34.16759
H         -0.45007       68.59112       34.19492
H         -1.45240       68.09345       32.79190
N         -2.55806       70.95476       36.12279
C         -2.47418       71.47425       37.48927
C         -1.03208       71.49013       37.96673
O         -0.18242       71.92226       37.19994
C         -3.01580       72.92016       37.51985
C         -4.46383       72.94884       37.08650
C         -5.44908       72.29944       37.85316
C         -4.83931       73.60552       35.90215
C         -6.78304       72.30204       37.43680
C         -6.17447       73.60256       35.48823
C         -7.14497       72.95108       36.25394
H         -2.76088       71.63763       35.38070
H         -3.12193       70.87778       38.16111
H         -2.39379       73.55175       36.84634
H         -2.93921       73.34341       38.54562
H         -5.18558       71.78944       38.77155
H         -4.09847       74.10730       35.29220
H         -7.53505       71.79785       38.03027
H         -6.45595       74.10244       34.57116
H         -8.17695       72.94934       35.93045
N         -0.66071       71.09919       39.22821
C          0.71616       71.15222       39.69471
C          1.55140       70.02184       39.11512
O          2.75781       70.02406       39.32162
C          0.57544       71.08414       41.21739
C         -0.62862       70.17757       41.37948
C         -1.56468       70.68516       40.28118
H          1.19269       72.12107       39.42490
H          1.49257       70.78747       41.77061
H          0.26229       72.09088       41.57860
H         -0.30019       69.14806       41.11177
H         -1.08086       70.15416       42.39387
H         -2.24832       69.86246       39.98361
H         -2.14419       71.57738       40.60779
N          0.98745       69.02798       38.37154
C          1.76011       68.00569       37.68262
C          2.56498       68.67493       36.58665
O          3.77902       68.52985       36.57184
C          0.81904       66.89542       37.14526
C          0.20182       66.13897       38.34527
C         -0.75380       64.99041       38.02659
O         -1.95040       65.41950       37.44855
O         -0.18671       64.01815       37.19584
H         -0.03581       69.00257       38.26125
H          2.46210       67.50976       38.39163
H          1.40650       66.17408       36.53636
H          0.03152       67.33960       36.50302
H         -0.35123       66.84219       39.00199
H          1.03181       65.70284       38.94026
N          1.95159       69.48277       35.67542
C          2.66398       70.22192       34.65175
H          3.75775       70.03130       34.67225
H          2.27365       69.94209       33.65193
H          2.50127       71.30998       34.80836
H          0.93204       69.61760       35.73178
Ca        -1.96671       63.86170       35.79556
O         -3.01152       62.07882       38.05328
H         -2.51022       62.07260       38.90623
H         -3.75451       62.71327       38.21001
O         -3.68296       64.08333       33.32407
H         -4.26616       64.86083       33.13555
H         -4.27345       63.29640       33.21954
O         -0.51588       62.27333       33.89606
H          0.37792       62.64499       33.68872
H         -0.86313       61.94851       33.02803
O         -3.58764       61.18122       34.87699
H         -4.08053       61.09635       35.73035
H         -4.21542       60.82857       34.19886

Ca 1.0



