%chk=apoCaM-CA-Ng.loop1.water3.frame22.chk
%nprocshared=20
%mem=10GB
%nosave
#b3lyp/svp scf=(tight,noincore,xqc) Test 
#IOP(5/87=12) Density=Current Pop=(MK,readradii) iop(6/33=2) iop(6/42=6)

apoCaM-CA-Ng.loop1.water3.frame22 

   0  1 
C         66.08228       37.13946       50.44407
C         64.69253       37.13702       49.87713
O         64.32409       38.07084       49.17967
H         66.63576       38.05301       50.14054
H         66.02976       37.10562       51.55322
H         66.63536       36.24707       50.08225
N         63.85962       36.09863       50.15570
C         62.48178       35.99981       49.68352
C         61.50159       35.97357       50.85514
O         60.33192       35.69118       50.63534
C         62.31736       34.75381       48.78011
C         62.49440       33.43744       49.48727
O         61.46407       32.57194       49.54909
O         63.56944       33.12924       49.97502
H         64.22222       35.34371       50.75706
H         62.21637       36.87130       49.04524
H         63.03485       34.80938       47.93285
H         61.29302       34.77502       48.34709
N         61.90167       36.29242       52.12239
C         61.04874       36.20201       53.30076
C         60.76468       37.58961       53.84980
O         61.71519       38.34846       53.98420
C         61.77958       35.41825       54.40925
C         62.23887       34.00195       54.04882
C         61.09659       33.06555       53.63302
C         61.53408       31.58859       53.61974
N         62.65961       31.32975       52.72141
H         62.86396       36.62508       52.27961
H         60.11461       35.66878       53.07055
H         61.11504       35.35275       55.29558
H         62.68759       35.98305       54.71733
H         62.72056       33.59462       54.96424
H         63.00105       34.04926       53.24184
H         60.70988       33.36686       52.63490
H         60.26771       33.14666       54.36919
H         60.66570       30.96752       53.30800
H         61.81755       31.28459       54.65179
H         62.87678       30.30740       52.73722
H         62.41039       31.60471       51.74791
H         63.51400       31.84279       53.03588
N         59.53883       38.01677       54.28163
C         58.27260       37.28626       54.29044
C         58.34567       35.95206       55.02922
O         58.04461       34.93455       54.41939
C         57.68890       37.13631       52.86524
C         57.54035       38.46038       52.17852
O         56.79030       39.42194       52.74367
O         58.06232       38.65590       51.09298
H         59.50151       38.96541       54.68907
H         57.54124       37.90312       54.84424
H         56.67587       36.68189       52.94787
H         58.30003       36.46740       52.23219
N         58.71261       35.81970       56.33661
C         59.10600       36.87892       57.25139
C         58.25547       36.82477       58.50623
O         58.04404       35.72860       59.00778
H         58.73861       34.85955       56.71723
H         59.09320       37.87824       56.78531
H         60.15153       36.66572       57.55963
N         57.77503       37.92938       59.14770
C         58.08038       39.31241       58.78475
C         57.23684       39.82461       57.62347
O         57.40494       40.98165       57.25599
C         57.90077       40.22082       60.02138
C         58.79850       39.78137       61.15001
O         58.26782       39.40118       62.32770
O         60.01060       39.76060       61.00120
H         57.26000       37.76504       60.02810
H         59.15480       39.38950       58.50693
H         56.84080       40.19830       60.35634
H         58.16546       41.26974       59.76500
N         56.33746       39.03562       56.97184
C         55.56487       39.52536       55.83794
C         54.80852       38.42171       55.12089
O         54.87643       37.26709       55.52380
H         56.22969       38.05671       57.26721
H         56.26028       39.98082       55.10351
H         54.85981       40.31372       56.18091
N         54.06855       38.71594       54.01626
C         53.32742       37.70953       53.25549
C         53.79717       37.67200       51.80876
O         54.65786       38.45569       51.43629
C         51.80312       37.96695       53.37866
C         51.33607       39.29384       52.76212
O         51.40352       37.88297       54.72479
H         54.02492       39.69976       53.70526
H         53.51448       36.69488       53.67012
H         51.26833       37.15864       52.83852
H         51.79868       38.65270       55.21185
H         50.23399       39.37878       52.86779
H         51.80099       40.16202       53.27248
H         51.58626       39.33022       51.68098
N         53.25642       36.78944       50.92216
C         53.68152       36.70657       49.53178
C         52.61720       37.33856       48.66676
O         51.48786       36.86659       48.65883
C         53.94994       35.22842       49.10803
C         55.05415       34.59825       49.99327
C         54.32900       35.15378       47.61164
C         55.30926       33.11756       49.69223
H         52.48934       36.17264       51.22867
H         54.62884       37.27086       49.37984
H         53.01106       34.64716       49.25039
H         54.74206       34.66371       51.05727
H         56.00574       35.16118       49.87471
H         55.26734       35.71437       47.41350
H         54.45113       34.10750       47.26990
H         53.52023       35.57435       46.98280
H         55.71357       32.97066       48.67029
H         56.06328       32.72023       50.40293
H         54.37125       32.53307       49.80425
N         52.94462       38.38944       47.86295
C         52.03279       38.96564       46.88594
C         52.47619       38.62249       45.46907
O         51.75680       38.96756       44.54383
C         51.90969       40.50228       47.08869
C         53.20344       41.25681       46.73910
O         51.56547       40.80343       48.41753
H         53.91088       38.74776       47.89281
H         51.02010       38.52306       47.01205
H         51.11834       40.89459       46.41064
H         50.76539       40.26650       48.65277
H         54.04214       40.95072       47.39476
H         53.49363       41.08066       45.68112
H         53.04844       42.34872       46.86708
N         53.64312       37.94280       45.22927
C         54.17113       37.57778       43.92217
C         54.50690       38.81499       43.11337
O         53.61364       39.58099       42.78125
C         53.23779       36.62071       43.14620
C         52.88630       35.37834       43.96808
O         53.88933       36.20212       41.97138
H         54.23387       37.65135       46.01739
H         55.11694       37.01526       44.10049
H         52.27968       37.13614       42.90179
H         53.39429       36.57841       41.19838
H         52.32309       35.66164       44.88155
H         52.24428       34.70103       43.36642
H         53.80687       34.82990       44.26259
N         55.79498       39.05861       42.74246
C         56.18834       40.20079       41.92843
C         57.17677       41.11105       42.65954
O         57.51716       42.15305       42.11739
C         56.70293       39.64403       40.59167
C         57.04081       40.71250       39.54812
C         57.39807       40.04718       38.21791
C         57.84404       41.08508       37.18521
N         58.20697       40.43572       35.92720
H         56.52857       38.38450       43.01278
H         55.30173       40.83318       41.70282
H         55.88816       39.00854       40.17494
H         57.59088       38.99825       40.76892
H         57.91045       41.30676       39.89376
H         56.16896       41.38781       39.39781
H         56.51357       39.49113       37.83342
H         58.22894       39.32702       38.38223
H         58.72750       41.63465       37.58038
H         57.02511       41.81662       37.00428
H         57.37318       39.95333       35.51980
H         58.54676       41.15954       35.25427
H         58.97146       39.74024       36.09026
N         57.61226       40.84234       43.92554
C         58.41199       41.79342       44.69046
C         59.81014       41.91914       44.11504
O         60.54348       40.93970       44.10531
C         58.46651       41.39614       46.18183
C         57.05506       41.38029       46.80289
C         57.10435       41.06781       48.26682
O         57.77097       41.88221       49.10601
O         56.52314       40.08846       48.70693
H         57.30576       39.97973       44.39311
H         57.90548       42.78383       44.65382
H         59.08421       42.14747       46.72304
H         58.94385       40.39771       46.29998
H         56.41698       40.62446       46.29814
H         56.57743       42.37502       46.67279
N         60.24176       43.11547       43.62154
C         61.56741       43.33282       43.07654
H         62.20276       42.42391       43.12478
H         61.48282       43.64939       42.01580
H         62.07028       44.14074       43.64938
H         59.60160       43.92350       43.62883
Ca        56.26169       41.31893       51.65520
O         53.53263       41.88659       50.41624
H         52.98854       41.58205       51.18516
H         53.82479       41.05049       49.97352
O         56.03343       44.30196       51.55510
H         56.49595       44.22437       50.68294
H         55.08195       44.12263       51.34774
O         58.97563       42.30267       52.00069
H         59.83289       42.11351       51.54370
H         58.98729       43.27886       52.16523

Ca 1.0



