%chk=apoCaM-CA-Ng.loop2.water4.frame34.chk
%nprocshared=20
%mem=10GB
%nosave
#b3lyp/svp scf=(tight,noincore,xqc) Test 
#IOP(5/87=12) Density=Current Pop=(MK,readradii) iop(6/33=2) iop(6/42=6)

apoCaM-CA-Ng.loop2.water4.frame34 

   -2  1 
C         56.65941       52.03422       47.96432
C         57.25673       50.91109       48.76555
O         58.35493       50.47809       48.44968
H         55.66712       52.33629       48.36303
H         57.33191       52.91672       47.99555
H         56.52730       51.71296       46.90981
N         56.58203       50.38926       49.82736
C         57.08717       49.29606       50.65334
C         57.27800       48.02801       49.83767
O         58.32948       47.41292       49.94296
C         56.11691       49.02460       51.81981
C         56.66391       47.98331       52.75913
O         57.83636       48.19162       53.38981
O         56.04947       46.94739       52.95510
H         55.66381       50.79687       50.06473
H         58.05693       49.60101       51.10543
H         55.12891       48.70301       51.42239
H         55.97063       49.96122       52.40057
N         56.30088       47.59304       48.98753
C         56.37480       46.36733       48.19363
C         57.64832       46.27434       47.35325
O         58.12507       45.17774       47.09402
C         56.18020       45.14879       49.10289
H         55.45616       48.17435       48.87627
H         55.51466       46.36629       47.48803
H         55.21440       45.24533       49.64524
H         56.13965       44.21729       48.49897
H         57.00039       45.06823       49.84540
N         58.26835       47.40699       46.92304
C         59.49439       47.45731       46.14048
C         60.62279       46.67859       46.80867
O         61.15638       45.75349       46.21051
C         59.23018       47.02374       44.67553
C         60.22091       47.68695       43.75325
O         60.96138       47.04411       43.02715
O         60.21020       49.03706       43.72779
H         57.85457       48.31575       47.17199
H         59.78501       48.53180       46.11195
H         58.24155       47.41683       44.35450
H         59.19890       45.91653       44.57453
N         61.04410       47.01691       48.06006
C         62.12324       46.32586       48.75683
C         63.36694       47.18536       48.88419
O         64.34664       46.71284       49.44242
H         60.60373       47.82271       48.53019
H         62.42669       45.40554       48.21347
H         61.76163       46.01582       49.76071
N         63.41926       48.43914       48.35290
C         64.60980       49.28260       48.35131
C         65.06956       49.60732       49.75898
O         64.29868       50.14038       50.54531
C         64.30845       50.57711       47.57602
C         64.04813       50.26950       46.12369
N         65.05672       49.86227       45.31976
O         62.92122       50.38469       45.66968
H         62.58090       48.81080       47.88610
H         65.43041       48.75135       47.82080
H         65.16092       51.28695       47.62721
H         63.41634       51.06107       48.03500
H         66.01628       49.77057       45.68366
H         64.88363       49.66090       44.32561
N         66.34996       49.31587       50.12772
C         66.89969       49.57430       51.44510
C         66.89400       51.04425       51.78046
O         67.46123       51.83153       51.03558
H         66.97998       48.87873       49.43808
H         67.95564       49.22751       51.46546
H         66.33595       48.98809       52.20172
N         66.28918       51.47876       52.92065
C         66.25923       52.87817       53.32589
C         65.50918       53.70411       52.29268
O         66.07101       54.64988       51.75810
C         65.64252       53.00776       54.75238
C         65.63938       54.45331       55.26169
O         64.33391       52.49740       54.78334
H         65.85068       50.77673       53.53661
H         67.30638       53.25142       53.39911
H         66.28572       52.40244       55.43455
H         64.12846       52.27073       55.72789
H         66.67218       54.85990       55.27515
H         64.99875       55.09664       54.62235
H         65.23839       54.48277       56.29791
N         64.21749       53.40759       51.98847
C         63.39293       54.22034       51.09815
C         63.75087       53.98496       49.63570
O         64.56381       53.11610       49.35409
C         61.87482       53.92544       51.35590
C         61.45860       52.49520       50.90348
C         61.53282       54.18259       52.84079
C         59.96695       52.20945       51.07251
H         63.79159       52.60585       52.46844
H         63.55868       55.29170       51.34995
H         61.28385       54.65174       50.75707
H         62.02449       51.71422       51.45084
H         61.68492       52.37888       49.82414
H         60.44181       54.11913       53.01983
H         62.02666       53.44907       53.51127
H         61.85671       55.20156       53.13893
H         59.74511       51.20733       50.65490
H         59.67859       52.19575       52.14316
H         59.35971       52.96513       50.53063
N         63.10760       54.67560       48.64744
C         63.16647       54.30169       47.23688
C         63.71794       55.41420       46.33668
O         63.67585       55.26017       45.12617
C         61.73569       53.85287       46.84796
C         61.61862       53.09508       45.55498
O         60.42074       52.59120       45.20011
O         62.58729       52.89668       44.84006
H         62.45079       55.42649       48.91168
H         63.82549       53.41841       47.09882
H         61.04954       54.72759       46.84224
H         61.37852       53.14220       47.62306
N         64.33519       56.52184       46.84377
C         64.95454       57.53307       45.98322
C         63.88732       58.37263       45.28261
O         63.12818       59.02127       45.98458
C         65.86418       58.45025       46.83049
C         66.55401       59.50861       46.00097
C         67.45700       59.15219       44.98319
C         66.29743       60.86878       46.24334
C         68.08435       60.14138       44.21908
C         66.92701       61.85370       45.47773
C         67.81893       61.49084       44.46577
H         64.44425       56.60706       47.86441
H         65.61351       57.01382       45.25750
H         66.64059       57.83566       47.33671
H         65.24740       58.92694       47.62407
H         67.67583       58.11165       44.77937
H         65.60717       61.16811       47.02204
H         68.77674       59.86208       43.43540
H         66.72192       62.89881       45.66954
H         68.30478       62.25566       43.87400
N         63.77097       58.45005       43.91603
C         62.79108       59.29519       43.24055
C         61.38892       58.70004       43.24938
O         60.49880       59.32213       42.68082
C         63.35645       59.40886       41.82266
C         63.94839       58.03246       41.61662
C         64.63290       57.78373       42.96104
H         62.75464       60.31616       43.68129
H         62.63501       59.75338       41.05004
H         64.20912       60.12630       41.84377
H         63.09659       57.32275       41.51395
H         64.60982       57.92023       40.73224
H         64.71328       56.68880       43.12558
H         65.63552       58.26026       43.00230
N         61.10054       57.53359       43.89131
C         59.76394       56.96928       43.99344
C         59.24826       57.07668       45.42916
O         58.12112       56.67221       45.66947
C         59.80004       55.49202       43.55462
C         60.20447       55.27531       42.08583
C         60.32074       53.79809       41.80307
O         61.27128       53.07051       42.42724
O         59.54335       53.25203       41.03704
H         61.84907       57.02431       44.38160
H         59.04169       57.52570       43.35548
H         58.79974       55.02909       43.70921
H         60.52701       54.98118       44.20837
H         61.18138       55.75239       41.86406
H         59.42676       55.73334       41.43642
N         60.00349       57.62898       46.42911
C         59.54965       57.78706       47.79463
H         58.51354       57.42269       47.94500
H         60.22927       57.22873       48.47260
H         59.58744       58.86437       48.06465
H         60.94987       57.96956       46.23933
Ca        61.17122       50.81050       42.69409
O         58.01048       50.79343       43.00920
H         57.88098       50.62228       43.97576
H         58.54505       51.62551       42.97817
O         60.98400       50.18526       39.78274
H         60.04392       50.29669       40.07381
H         61.11468       49.20493       39.73630
O         63.70162       48.55460       42.15739
H         64.69064       48.51008       42.13940
H         63.44516       48.00117       42.93697
O         63.85647       51.53491       41.29661
H         63.80267       51.57820       40.30889
H         64.81488       51.67491       41.50138

Ca 1.0



