%chk=apoCaM-CA-Ng.loop3.water6.frame367.chk
%nprocshared=20
%mem=10GB
%nosave
#b3lyp/svp scf=(tight,noincore,xqc) Test 
#IOP(5/87=12) Density=Current Pop=(MK,readradii) iop(6/33=2) iop(6/42=6)

apoCaM-CA-Ng.loop3.water6.frame367 

   0  1 
C         58.74350      114.07593       48.94931
C         59.60369      115.10922       48.27978
O         60.77574      115.19579       48.60767
H         57.70320      114.09689       48.56058
H         59.16697      113.06523       48.77421
H         58.70984      114.27413       50.04183
N         59.07572      115.93768       47.33342
C         59.79562      117.01118       46.64885
C         60.25890      118.07406       47.64465
O         61.35713      118.60009       47.52137
C         60.94456      116.42673       45.78884
C         61.58415      117.40082       44.83217
O         62.60795      116.98645       44.06239
O         61.18337      118.54960       44.72716
H         58.08003      115.82135       47.08840
H         59.05755      117.49333       45.96900
H         60.54507      115.58869       45.17904
H         61.73124      116.02164       46.45896
N         59.46098      118.40361       48.70015
C         59.80391      119.38630       49.73160
C         61.07761      119.07005       50.52696
O         61.41981      119.86840       51.38581
C         58.59872      119.54154       50.69878
C         58.32829      118.28244       51.55620
C         56.94294      118.35790       52.21940
C         56.59058      117.09921       53.03257
N         57.36320      116.99949       54.27123
H         58.54279      117.93753       48.75662
H         59.95357      120.36460       49.22326
H         57.70890      119.76533       50.06963
H         58.74709      120.40862       51.37972
H         59.13650      118.17657       52.31081
H         58.33349      117.37432       50.91854
H         56.19429      118.43566       51.40035
H         56.85024      119.26134       52.85995
H         56.74145      116.18889       52.40956
H         55.51168      117.14855       53.29968
H         58.38662      116.93971       54.07535
H         57.16291      117.82730       54.87884
H         57.07047      116.13524       54.78241
N         61.81996      117.94007       50.31419
C         62.98936      117.56995       51.10196
C         64.24856      117.55144       50.23612
O         64.15253      117.61092       49.01879
C         62.67688      116.19408       51.72159
C         63.75537      115.64496       52.59487
O         64.25538      114.56589       52.32724
O         64.14851      116.31356       53.69401
H         61.54244      117.27323       49.59291
H         63.15751      118.31811       51.90601
H         62.47430      115.46910       50.90021
H         61.75266      116.28181       52.33286
N         65.48176      117.56948       50.82718
C         66.72681      117.65643       50.07676
C         67.10879      116.37078       49.38009
O         67.91246      116.42716       48.45946
H         65.53963      117.61681       51.85305
H         67.56470      117.90319       50.76407
H         66.65359      118.49139       49.34628
N         66.64515      115.16243       49.80944
C         67.01450      113.90279       49.16771
C         66.44096      113.81911       47.76583
O         66.89181      112.97147       47.01042
C         66.47860      112.69149       49.97895
C         67.17701      112.45580       51.33296
N         68.42856      111.71957       51.18169
O         67.39450      113.64921       52.02766
H         66.02316      115.13964       50.62715
H         68.12401      113.84258       49.10119
H         66.58196      111.74820       49.39700
H         65.39149      112.84802       50.15008
H         69.08228      112.23032       50.54844
H         68.87403      111.62106       52.12273
N         65.39745      114.60512       47.36434
C         64.76926      114.47714       46.06066
C         64.04259      113.15505       45.86810
O         63.50488      112.94784       44.79075
H         65.00488      115.30808       48.00493
H         65.53671      114.61625       45.27093
H         64.01167      115.28252       45.94964
N         63.92425      112.24585       46.87976
C         63.15744      111.01483       46.78645
C         63.91142      109.88549       47.47286
O         64.42968      110.06644       48.56571
C         61.78679      111.25447       47.42888
C         60.95599      109.99537       47.48037
C         60.59774      109.29808       46.31048
C         60.54573      109.50053       48.72586
C         59.84893      108.11885       46.39664
C         59.79836      108.32668       48.80907
C         59.44943      107.62870       47.64527
O         58.73594      106.48772       47.71744
H         64.29359      112.47578       47.81021
H         62.96899      110.73971       45.72482
H         61.24593      112.02757       46.83851
H         61.93989      111.65805       48.45285
H         60.90312      109.65594       45.33486
H         60.81134      110.02216       49.63656
H         59.58545      107.58102       45.49417
H         59.49629      107.96052       49.78120
H         58.44931      106.11685       48.56450
N         63.96872      108.66420       46.88132
C         64.77571      107.55657       47.38112
C         66.22346      107.92134       47.12124
O         67.03212      107.84541       48.03686
C         64.31749      106.23299       46.69585
C         62.86036      105.92896       47.15226
C         65.23562      105.04697       47.05194
C         62.16130      104.84399       46.33849
H         63.45062      108.52916       45.99983
H         64.61815      107.40649       48.47516
H         64.34914      106.38170       45.59398
H         62.23275      106.83405       47.04468
H         62.85378      105.65340       48.23138
H         64.90859      104.12003       46.53916
H         66.26988      105.23896       46.71804
H         65.24755      104.86577       48.14799
H         61.12655      104.71553       46.72336
H         62.10129      105.15799       45.27494
H         62.67909      103.86851       46.41223
N         66.59361      108.43883       45.91134
C         67.93909      108.93415       45.65120
C         68.94048      107.80304       45.52166
O         70.13066      108.06174       45.61016
C         67.96990      109.78645       44.37169
O         67.02973      110.82419       44.44165
H         65.87012      108.56135       45.18569
H         68.22668      109.59163       46.50419
H         67.71758      109.15245       43.49529
H         68.98578      110.20810       44.19712
H         67.37642      111.47214       45.10524
N         68.52171      106.52375       45.28824
C         69.39683      105.36437       45.19867
C         70.13133      105.17355       46.51279
O         71.34951      105.04117       46.52910
C         70.31760      105.46342       43.97266
H         67.51704      106.33817       45.17616
H         68.74903      104.47107       45.05069
H         71.01237      106.32484       44.04987
H         70.91718      104.53547       43.86663
H         69.70433      105.59018       43.05422
N         69.42174      105.20301       47.67416
C         70.00007      105.09241       49.00335
C         69.24076      104.05766       49.80411
O         68.02093      104.14804       49.87672
C         69.90673      106.44582       49.70595
H         68.40658      105.37900       47.61754
H         71.08136      104.83259       48.95413
H         70.35828      106.37464       50.71904
H         70.46985      107.20721       49.12475
H         68.85124      106.77570       49.80285
N         69.89801      103.05807       50.45529
C         69.24228      102.02287       51.24833
C         68.36027      101.17319       50.35202
O         67.17421      101.02212       50.61307
C         68.46106      102.61802       52.45531
C         69.32828      103.45801       53.40465
C         70.39971      102.63760       54.06277
O         71.57536      102.92970       53.91582
O         70.06576      101.58258       54.83098
H         70.92750      103.02059       50.39028
H         70.02820      101.34796       51.65297
H         67.99612      101.79126       53.03664
H         67.63262      103.26207       52.09535
H         68.67833      103.87796       54.20267
H         69.77617      104.30991       52.84776
N         68.89830      100.58345       49.25013
C         68.11370       99.76002       48.35778
H         67.26519      100.34675       47.94587
H         68.74640       99.40895       47.51524
H         67.72458       98.87585       48.90556
H         69.89532      100.73057       49.03179
Ca        66.23058      113.51806       53.98161
O         65.38026      115.88752       56.32652
H         65.05666      115.68951       57.24095
H         65.90721      116.72021       56.42257
O         68.86565      113.17245       55.22777
H         69.12166      113.79826       55.95081
H         69.25212      113.56844       54.40646
O         67.40435      116.34633       53.43678
H         67.42844      117.33561       53.45414
H         68.20463      116.08846       52.91421
O         65.88268      112.85501       56.88987
H         65.02244      112.42904       57.13194
H         66.34839      112.98902       57.75302
O         65.89523      110.57971       53.84777
H         65.02000      110.56773       54.30988
H         66.53615      110.87846       54.54115
O         63.23452      113.08139       54.77191
H         63.08792      112.10253       54.77253
H         62.38053      113.46156       55.09738

Ca 1.0



