%chk=apoCaM-CA-Ng.loop1.water6.frame576.chk
%nprocshared=20
%mem=10GB
%nosave
#b3lyp/svp scf=(tight,noincore,xqc) Test 
#IOP(5/87=12) Density=Current Pop=(MK,readradii) iop(6/33=2) iop(6/42=6)

apoCaM-CA-Ng.loop1.water6.frame576 

   0  1 
C         66.94210       34.33360       69.08682
C         66.76150       35.01572       70.41352
O         67.69892       35.64722       70.87925
H         67.77541       33.60235       69.15470
H         66.02406       33.78984       68.77925
H         67.18462       35.08664       68.30821
N         65.57899       34.91971       71.08664
C         65.33300       35.52932       72.39000
C         65.08760       34.43610       73.41291
O         64.50816       33.41174       73.07578
C         64.15744       36.50856       72.30363
C         63.95206       37.23054       73.60829
O         62.89107       37.13658       74.20319
O         64.94029       37.98749       74.12526
H         64.81432       34.37122       70.66288
H         66.22390       36.11481       72.71119
H         63.23460       35.96226       72.01156
H         64.37964       37.26883       71.52381
N         65.63726       34.54123       74.65415
C         65.74322       33.40061       75.55449
C         64.38169       32.97727       76.10203
O         63.78534       33.71775       76.87122
C         66.80433       33.71750       76.63746
C         67.58864       32.49065       77.10671
C         66.84350       31.51620       78.00190
C         66.59926       32.11308       79.39211
N         66.19696       31.06138       80.30980
H         66.12809       35.41760       74.89123
H         66.17001       32.58643       74.92792
H         66.40394       34.35149       77.45865
H         67.60004       34.31570       76.13987
H         68.49427       32.83395       77.65533
H         67.95230       31.94658       76.20815
H         67.52699       30.64698       78.11972
H         65.90354       31.14563       77.54132
H         65.83497       32.92064       79.36147
H         67.55149       32.54401       79.77522
H         65.25702       30.69096       80.06060
H         66.89037       30.29196       80.23936
H         66.21442       31.42275       81.28779
N         63.80227       31.82075       75.66252
C         62.44368       31.38823       75.99343
C         62.44550       29.88386       76.28425
O         62.96599       29.15355       75.45200
C         61.55796       31.68891       74.76669
C         60.10605       31.39903       75.01685
O         59.44229       32.06538       75.98059
O         59.51382       30.58679       74.32575
H         64.30969       31.27436       74.94974
H         62.02980       31.98047       76.83588
H         61.91942       31.10919       73.88856
H         61.63973       32.76987       74.51792
N         61.87187       29.29393       77.37712
C         61.10786       29.96097       78.41605
C         61.92889       30.86811       79.29254
O         63.12063       31.01955       79.08001
H         61.91884       28.26398       77.43928
H         60.66142       29.18688       79.07876
H         60.27374       30.52695       77.95475
N         61.31204       31.53809       80.30344
C         61.98954       32.50069       81.16108
C         62.99786       31.83752       82.09211
O         64.14545       32.24898       82.08648
C         60.95068       33.30240       81.97238
C         61.58864       34.43550       82.72875
O         61.48541       34.49774       84.06920
O         62.19140       35.31212       82.12864
H         60.29430       31.40390       80.41728
H         62.50724       33.23694       80.50364
H         60.40717       32.63188       82.67242
H         60.20745       33.74422       81.27259
N         62.62826       30.85552       82.96664
C         63.53281       30.27708       83.95976
C         64.67101       29.45615       83.37761
O         64.74212       29.30981       82.16910
H         61.64521       30.54389       82.97432
H         62.94834       29.59742       84.61787
H         63.94665       31.09261       84.59055
N         65.57271       28.86199       84.22944
C         66.70072       27.96640       83.90020
C         66.86940       27.72644       82.41106
O         67.30799       28.62044       81.71276
C         68.04522       28.48503       84.48683
C         68.02884       28.66523       86.01074
O         69.10119       27.62349       84.13426
H         65.40382       29.01517       85.23401
H         66.46996       26.99123       84.38275
H         68.26166       29.47962       84.03826
H         68.89887       26.72706       84.51106
H         67.80718       27.70011       86.51365
H         69.02384       29.02354       86.35029
H         67.28217       29.42208       86.32283
N         66.46719       26.55327       81.85764
C         66.36331       26.33455       80.41661
C         64.88557       26.35789       80.07913
O         64.48035       27.14378       79.23123
C         67.04475       25.00360       79.99619
C         68.54611       24.95664       80.38454
C         66.86135       24.73803       78.48727
C         69.42141       26.04254       79.74684
H         66.10073       25.82734       82.48875
H         66.83790       27.16140       79.84378
H         66.54766       24.16738       80.53620
H         68.95615       23.96494       80.09233
H         68.63955       25.04104       81.48827
H         65.78413       24.66078       78.22932
H         67.29908       25.55299       77.87432
H         67.33941       23.77649       78.20364
H         69.09871       27.05484       80.06330
H         70.47202       25.90467       80.07782
H         69.40452       25.97862       78.63995
N         64.01145       25.58680       80.78258
C         62.56970       25.66099       80.63873
C         61.98890       24.26457       80.59029
O         62.26947       23.46646       81.47461
C         61.95209       26.51814       81.78199
C         62.23024       25.99607       83.19663
O         62.44268       27.83190       81.71238
H         64.37397       24.98324       81.53434
H         62.29632       26.19524       79.70077
H         60.84585       26.54602       81.64991
H         62.20118       28.19994       80.82320
H         63.32032       25.99042       83.40774
H         61.74268       26.66602       83.93691
H         61.81626       24.98030       83.34715
N         61.14982       23.90947       79.58263
C         60.48873       22.61039       79.48504
C         59.65548       22.57652       78.22040
O         59.85407       21.69255       77.40221
C         59.60341       22.30259       80.72885
C         58.90151       20.94350       80.60171
O         58.64949       23.31527       80.91960
H         60.96029       24.61688       78.85379
H         61.26502       21.81326       79.41913
H         60.26021       22.24064       81.62287
H         58.39616       23.29851       81.87950
H         59.65204       20.13647       80.46018
H         58.32323       20.72958       81.52450
H         58.19798       20.93537       79.74238
N         58.72223       23.54672       77.98676
C         57.93373       23.57178       76.76554
C         57.42778       24.96484       76.42953
O         57.38104       25.84324       77.27493
C         56.76671       22.56493       76.84046
C         55.83288       22.85597       78.03316
C         54.61822       21.92284       78.04050
C         53.71992       22.20110       79.25518
N         52.52116       21.36402       79.22300
H         58.63321       24.31959       78.65917
H         58.61755       23.31329       75.92651
H         57.16800       21.53393       76.94575
H         56.19017       22.61223       75.89087
H         55.46354       23.90297       77.97774
H         56.40083       22.73208       78.98160
H         54.95485       20.86371       78.07086
H         54.03603       22.08907       77.10776
H         53.41284       23.27086       79.26011
H         54.28900       21.99684       80.19000
H         51.95486       21.58620       78.37190
H         52.78501       20.35218       79.21753
H         51.94285       21.56028       80.07184
N         57.09009       25.22113       75.13428
C         56.63929       26.51225       74.62373
C         57.65792       27.64880       74.95153
O         57.23996       28.38422       76.06864
C         56.36755       26.36801       73.09328
C         55.56585       27.49312       72.40515
C         56.26657       28.81556       72.35791
O         55.69614       29.89324       72.92946
O         57.36995       28.91041       71.84522
H         57.18929       24.44477       74.46312
H         55.66105       26.75484       75.09529
H         55.73811       25.45970       72.96119
H         57.31150       26.18920       72.53983
H         54.58419       27.60461       72.91418
H         55.37300       27.18106       71.35553
N         59.05130       27.21804       75.15145
C         59.68205       26.74127       73.92482
H         60.76406       26.57586       74.11649
H         59.25800       25.76256       73.62655
H         59.57574       27.48568       73.10694
H         59.59565       28.05433       75.46918
Ca        56.56851       30.20650       74.94266
O         54.66281       32.72786       74.08543
H         54.19312       33.58154       74.26115
H         53.94497       32.04580       74.07995
O         56.33628       33.38503       76.86104
H         56.50370       34.31114       76.55379
H         55.80757       33.49230       77.69117
O         57.73223       34.08018       74.10454
H         57.22378       34.27609       73.27782
H         58.67414       34.00818       73.80809
O         57.27469       30.57826       78.35844
H         57.63418       31.26150       78.97797
H         57.75454       30.74007       77.50853
O         54.40005       30.72965       76.80498
H         54.19813       30.17136       77.59690
H         53.83100       31.53272       76.90956
O         57.80333       31.89709       71.95512
H         57.60691       31.50447       71.06798
H         58.75396       32.16805       71.90217

Ca 1.0



