%chk=apoCaM-CA-Ng.loop1.water3.frame444.chk
%nprocshared=20
%mem=10GB
%nosave
#b3lyp/svp scf=(tight,noincore,xqc) Test 
#IOP(5/87=12) Density=Current Pop=(MK,readradii) iop(6/33=2) iop(6/42=6)

apoCaM-CA-Ng.loop1.water3.frame444 

   0  1 
C        112.11996       78.60160       80.28097
C        112.14973       78.79531       78.79042
O        111.94470       77.83965       78.05667
H        111.11935       78.23349       80.58948
H        112.89421       77.86683       80.58115
H        112.31629       79.55464       80.81942
N        112.38223       80.02976       78.27264
C        112.37861       80.33142       76.84427
C        113.65496       79.86156       76.13169
O        113.82268       80.23247       74.98465
C        112.24435       81.86906       76.64936
C        110.95661       82.43079       77.20419
O        110.15392       82.96568       76.45686
O        110.68999       82.38057       78.52301
H        112.51678       80.80712       78.93721
H        111.48531       79.88004       76.35749
H        112.25434       82.09643       75.56398
H        113.10536       82.39631       77.11534
N        114.63025       79.11372       76.72666
C        115.97217       78.98483       76.14928
C        116.35424       77.54160       75.83878
O        116.11521       76.70433       76.69752
C        116.97492       79.55821       77.17240
C        116.59717       80.98242       77.61185
C        117.61929       81.54539       78.59934
C        117.14712       82.89605       79.15139
N        118.13034       83.45318       80.07781
H        114.48701       78.73285       77.67149
H        116.06101       79.60005       75.24134
H        117.99275       79.56137       76.73387
H        116.99262       78.90985       78.07667
H        115.60638       80.95329       78.11604
H        116.52599       81.65253       76.72712
H        118.59783       81.66079       78.08389
H        117.74218       80.84005       79.45052
H        116.18091       82.75262       79.68695
H        116.98110       83.61107       78.31547
H        119.02732       83.64009       79.57373
H        117.76334       84.35242       80.46462
H        118.29987       82.78863       80.86768
N        117.04407       77.13767       74.71559
C        117.50238       77.95399       73.58236
C        118.32567       79.15083       74.03775
O        117.91138       80.28228       73.82517
C        116.33285       78.30179       72.64323
C        115.73808       77.07101       72.01940
O        114.76158       77.17728       71.29444
O        116.27880       75.85181       72.23014
H        117.31423       76.14199       74.67773
H        118.18097       77.34625       72.94289
H        116.69815       78.92872       71.80709
H        115.54147       78.84319       73.19569
N        119.53122       79.00125       74.65670
C        120.18241       77.70698       74.80141
C        121.55108       77.78888       75.45718
O        121.89169       78.82349       76.01205
H        120.02014       79.85728       74.95856
H        120.32708       77.31681       73.77330
H        119.55391       76.99884       75.37973
N        122.44575       76.75685       75.39360
C        122.21210       75.52546       74.64268
C        122.84007       75.62977       73.26512
O        123.61818       76.54121       73.01542
C        122.69760       74.26819       75.40181
C        124.19205       74.21759       75.61827
O        124.85147       73.32696       75.10614
O        124.80835       75.12172       76.40270
H        123.38479       76.93243       75.77623
H        121.12326       75.38848       74.48532
H        122.40183       73.37374       74.80946
H        122.18731       74.19870       76.38575
N        122.48946       74.74165       72.29555
C        123.01891       74.77104       70.94400
C        122.77207       76.09246       70.25165
O        123.72973       76.68890       69.77998
H        121.79723       74.01004       72.51904
H        122.52921       73.96754       70.35272
H        124.11049       74.55935       70.96963
N        121.51516       76.61433       70.15557
C        121.22084       77.86217       69.44894
C        120.80086       78.94532       70.43733
O        120.64551       78.66240       71.61540
C        120.14366       77.58450       68.36380
C        120.63791       76.55404       67.34097
O        119.81292       78.76205       67.67634
H        120.73365       76.10965       70.60257
H        122.13714       78.24882       68.95123
H        119.23786       77.18411       68.87994
H        118.89613       78.63902       67.31410
H        120.88924       75.59040       67.83062
H        119.84504       76.36131       66.58727
H        121.53845       76.93907       66.81550
N        120.66066       80.23709       70.01738
C        120.31790       81.35715       70.89327
C        118.99828       82.00858       70.48604
O        118.65757       83.03090       71.06414
C        121.46009       82.42444       70.88573
C        121.65730       83.07974       69.48848
C        122.77010       81.81481       71.41609
C        122.53519       84.33207       69.52861
H        120.83258       80.45092       69.02563
H        120.19210       81.01436       71.94420
H        121.15338       83.22427       71.59688
H        120.67603       83.41474       69.09134
H        122.08658       82.34990       68.76970
H        122.60712       81.37745       72.42384
H        123.13800       81.01672       70.73650
H        123.56096       82.58483       71.51653
H        122.59491       84.77180       68.51035
H        122.08390       85.08844       70.20677
H        123.56563       84.10541       69.86454
N        118.21694       81.50433       69.48810
C        117.03176       82.19220       68.97583
C        115.93418       82.43178       70.00894
O        115.04402       83.21921       69.71977
C        116.43917       81.42349       67.76296
C        115.91397       80.02420       68.15039
O        117.42682       81.29930       66.77201
H        118.50971       80.63518       69.02583
H        117.37445       83.19163       68.62483
H        115.59189       82.02363       67.35752
H        116.96899       81.00173       65.94280
H        115.48547       79.52063       67.25918
H        116.71910       79.37672       68.55442
H        115.11434       80.09604       68.91362
N        115.88651       81.74653       71.18843
C        114.81289       81.85115       72.18035
C        113.45176       81.45067       71.58798
O        113.33575       81.27748       70.38392
C        114.80446       83.25242       72.85511
C        116.14943       83.54358       73.53582
O        113.79874       83.31261       73.83074
H        116.63398       81.07274       71.39103
H        115.03965       81.10954       72.97246
H        114.60816       84.02434       72.07755
H        113.63791       84.27293       74.02617
H        116.97405       83.54247       72.80064
H        116.12535       84.54441       74.01647
H        116.36224       82.78203       74.31712
N        112.38166       81.22268       72.40308
C        111.05368       80.84827       71.92971
C        110.71465       79.39416       72.26622
O        109.62930       78.95982       71.90417
C        110.00796       81.78063       72.57770
C        110.26853       83.27551       72.30863
C        109.30726       84.18736       73.09160
C        107.83928       84.06325       72.65477
N        106.98246       84.92082       73.47363
H        112.50063       81.30387       73.41542
H        110.99307       80.94539       70.82359
H        110.02964       81.61353       73.67836
H        109.00307       81.50247       72.19907
H        110.21064       83.49185       71.22015
H        111.29288       83.52762       72.65653
H        109.62665       85.24233       72.94517
H        109.39436       83.95360       74.17329
H        107.48486       83.01735       72.76169
H        107.75054       84.35884       71.58589
H        105.99533       84.83942       73.13889
H        107.02374       84.61260       74.47290
H        107.28643       85.91864       73.40057
N        111.58359       78.57175       72.92736
C        111.28916       77.17085       73.22903
C        110.09344       77.04682       74.14938
O        110.12575       77.57850       75.25084
C        112.52230       76.50477       73.87269
C        112.37982       75.02286       74.26369
C        111.97062       74.08614       73.14921
O        110.81395       74.04681       72.76667
O        112.86440       73.21292       72.64787
H        112.50443       78.93782       73.20487
H        111.09047       76.64373       72.27054
H        112.81427       77.06863       74.78771
H        113.35726       76.58143       73.15988
H        111.66553       74.90304       75.10600
H        113.37788       74.70969       74.64222
N        109.01152       76.31617       73.75877
C        107.85301       76.08421       74.59425
H        106.94587       76.45636       74.07567
H        107.74514       74.99187       74.76618
H        107.93415       76.58620       75.58046
H        109.00961       75.87621       72.82665
Ca       114.89847       74.10063       72.37391
O        116.81046       71.37263       70.25031
H        117.74192       71.65337       70.06563
H        116.89319       70.44415       70.58418
O        116.88846       74.46993       69.28546
H        116.79478       75.34399       68.82997
H        117.82453       74.19801       69.11128
O        113.97839       73.05416       69.54972
H        114.19679       72.76876       68.62719
H        113.14141       72.57228       69.76806

Ca 1.0



