%chk=apoCaM-CA-Ng.loop3.water6.frame283.chk
%nprocshared=20
%mem=10GB
%nosave
#b3lyp/svp scf=(tight,noincore,xqc) Test 
#IOP(5/87=12) Density=Current Pop=(MK,readradii) iop(6/33=2) iop(6/42=6)

apoCaM-CA-Ng.loop3.water6.frame283 

   0  1 
C         45.32526       29.03810       11.53786
C         45.20554       28.07773       10.38842
O         44.17511       27.43218       10.26434
H         46.30692       29.55851       11.53216
H         44.52325       29.80236       11.47456
H         45.23080       28.48589       12.49630
N         46.24040       27.92852        9.51011
C         46.26211       27.04130        8.34746
C         46.28235       25.54979        8.69996
O         46.41384       24.75101        7.78268
C         45.10469       27.39339        7.37831
C         45.27405       26.74710        6.03013
O         44.43824       25.96737        5.60601
O         46.35136       27.03647        5.27667
H         47.08002       28.51075        9.65251
H         47.22066       27.24687        7.82030
H         45.08259       28.49189        7.21218
H         44.12994       27.09347        7.82180
N         46.14555       25.08755        9.97863
C         46.09155       23.67167       10.32070
C         44.66780       23.32700       10.67117
O         44.38036       22.88214       11.77476
C         47.09278       23.36170       11.45776
C         48.55761       23.48211       11.00793
C         48.95631       22.32618       10.06640
C         50.42125       22.38439        9.61621
N         50.67210       23.50660        8.71044
H         46.01486       25.74411       10.75682
H         46.31158       23.02618        9.44853
H         46.93683       22.33255       11.85070
H         46.90146       24.07027       12.29441
H         49.20289       23.41434       11.91106
H         48.71667       24.47739       10.54448
H         48.32333       22.29267        9.15790
H         48.80783       21.37382       10.62212
H         50.64873       21.43960        9.07389
H         51.09284       22.44161       10.50092
H         50.51076       24.41981        9.18940
H         51.66743       23.46937        8.39384
H         50.05215       23.43181        7.87060
N         43.71582       23.49097        9.71089
C         42.31970       23.13670        9.88212
C         41.93525       22.08689        8.84299
O         42.73655       21.77283        7.97125
C         41.48930       24.42479        9.72911
C         40.04187       24.23721       10.06078
O         39.11000       24.41701        9.11068
O         39.70418       23.93041       11.19255
H         43.99783       23.87700        8.79572
H         42.15810       22.71033       10.89616
H         41.59897       24.79940        8.68808
H         41.88519       25.20850       10.41107
N         40.71699       21.48463        8.88723
C         40.27517       20.50144        7.91678
C         40.14380       21.09800        6.53687
O         40.74955       20.56887        5.61544
H         40.07475       21.70899        9.65761
H         39.27737       20.12088        8.21526
H         40.97632       19.63672        7.90888
N         39.36484       22.20213        6.32056
C         39.16048       22.77995        4.98973
C         39.87930       24.10991        4.79999
O         40.07794       24.49441        3.65572
C         37.66163       22.87664        4.63549
C         36.91142       23.90224        5.45788
N         36.32803       24.96817        4.86065
O         36.81967       23.76820        6.66768
H         38.91445       22.63909        7.13570
H         39.61887       22.09635        4.24245
H         37.18345       21.88165        4.76800
H         37.57923       23.14510        3.56045
H         36.38387       25.10162        3.84095
H         35.81833       25.66829        5.41832
N         40.32929       24.84809        5.85373
C         41.21140       25.99546        5.71333
C         40.60974       27.29795        6.17679
O         39.41089       27.38622        6.39193
H         40.10042       24.55769        6.81123
H         41.56330       26.13738        4.66901
H         42.09495       25.77988        6.34525
N         41.43349       28.37310        6.34290
C         40.99313       29.69354        6.78368
C         40.29463       29.61382        8.13408
O         40.74313       28.89483        9.01590
C         42.14977       30.72197        6.80781
C         42.54754       31.14192        5.40061
C         43.32393       30.32263        4.55719
C         42.10235       32.38408        4.90832
C         43.62884       30.73218        3.25362
C         42.40228       32.78609        3.60468
C         43.16361       31.95879        2.77043
O         43.45078       32.33035        1.50625
H         42.43464       28.22392        6.16815
H         40.25233       30.08831        6.05187
H         43.02284       30.38623        7.40916
H         41.74497       31.62404        7.31834
H         43.70639       29.37136        4.89044
H         41.50026       33.03812        5.52661
H         44.22365       30.09114        2.61461
H         42.03494       33.73829        3.24286
H         43.13368       33.16449        1.13066
N         39.14140       30.32095        8.32024
C         38.23054       30.17074        9.45499
C         36.86734       29.79027        8.87719
O         36.32221       28.76602        9.25525
C         38.11619       31.45766       10.32274
C         39.50919       31.93441       10.80464
C         37.21230       31.16473       11.54790
C         39.46157       33.26324       11.56774
H         38.87137       30.97539        7.57294
H         38.59486       29.36757       10.13290
H         37.66223       32.26382        9.70572
H         40.16700       32.09199        9.92440
H         39.97456       31.15747       11.45106
H         36.22301       30.77794       11.25481
H         37.67831       30.39312       12.19870
H         37.01964       32.07340       12.14942
H         38.87544       33.18431       12.50527
H         40.49081       33.56657       11.85011
H         39.01990       34.05596       10.92709
N         36.28366       30.56410        7.90959
C         35.05596       30.19239        7.20611
C         33.80736       30.27176        8.07005
O         32.74551       29.90785        7.57979
C         34.86420       31.09046        5.96688
O         34.64665       32.42802        6.33892
H         36.77710       31.41139        7.59762
H         35.17840       29.14961        6.83655
H         33.98891       30.74651        5.37510
H         35.74603       31.00215        5.28921
H         35.51892       32.89758        6.27979
N         33.84004       30.75099        9.34560
C         32.67356       30.90682       10.19841
C         31.93384       29.58835       10.36497
O         30.75387       29.51426       10.05301
C         31.77799       32.03317        9.65593
H         34.73330       31.05492        9.74328
H         33.01954       31.23738       11.20336
H         32.36702       32.97257        9.57557
H         31.37338       31.78600        8.65285
H         30.92956       32.21534       10.34894
N         32.57785       28.49716       10.87296
C         31.90131       27.21374       11.04917
C         32.56813       26.35552       12.10665
O         33.78211       26.37325       12.23167
C         31.84789       26.44263        9.72951
H         33.56781       28.59389       11.14364
H         30.85760       27.39951       11.38607
H         32.87373       26.20256        9.38687
H         31.29263       25.48928        9.86982
H         31.33313       27.03497        8.94521
N         31.79735       25.54105       12.88905
C         32.29739       24.62214       13.91038
C         32.89108       25.33064       15.13222
O         33.23079       24.63919       16.08125
C         33.23438       23.56422       13.25980
C         33.64483       22.42438       14.21459
C         34.37863       21.29796       13.53674
O         34.57886       21.29980       12.33270
O         34.80771       20.25688       14.27480
H         30.77925       25.53569       12.72436
H         31.41297       24.06520       14.29516
H         34.15350       24.03417       12.85114
H         32.66934       23.11407       12.41354
H         32.73581       21.99370       14.68536
H         34.31460       22.82063       15.00338
N         33.00115       26.68934       15.22520
C         33.54036       27.35986       16.39341
H         34.43190       27.95115       16.09889
H         32.77347       28.04445       16.81175
H         33.84436       26.65210       17.19360
H         32.68967       27.29837       14.45926
Ca        36.91572       24.32256        9.59588
O         37.00960       26.11034       12.06718
H         37.81782       26.64343       12.27246
H         36.29439       26.78413       11.95422
O         37.46955       21.46322        9.56946
H         37.73761       20.77876       10.23270
H         36.80398       21.01109        8.99374
O         34.22329       23.08986        9.53006
H         34.06807       23.17480        8.55589
H         33.98298       22.15285        9.73890
O         38.57569       27.00171        8.97409
H         37.81601       26.91771        8.34548
H         38.15998       27.01282        9.87013
O         35.02767       25.81845        7.96880
H         34.27712       26.05804        7.37071
H         35.25567       26.66211        8.42979
O         37.17599       22.88912       12.35829
H         37.02207       23.51561       13.10835
H         36.38236       23.00390       11.77915

Ca 1.0



