%chk=apoCaM-CA-Ng.loop2.water4.frame351.chk
%nprocshared=20
%mem=10GB
%nosave
#b3lyp/svp scf=(tight,noincore,xqc) Test 
#IOP(5/87=12) Density=Current Pop=(MK,readradii) iop(6/33=2) iop(6/42=6)

apoCaM-CA-Ng.loop2.water4.frame351 

   -2  1 
C         60.96630       97.39621       50.45333
C         60.14022       98.19956       51.41201
O         60.30734       98.04438       52.61364
H         61.67675       96.74025       51.00152
H         60.30179       96.76179       49.83106
H         61.54652       98.07743       49.79641
N         59.23054       99.09930       50.94141
C         58.39479       99.91748       51.80828
C         56.93703       99.69143       51.45355
O         56.50857      100.15700       50.40710
C         58.79985      101.39750       51.62685
C         58.04369      102.37066       52.49265
O         58.29567      103.56209       52.41045
O         57.09772      101.95478       53.35715
H         59.14020       99.22222       49.92118
H         58.56000       99.64093       52.87275
H         58.65664      101.68717       50.56174
H         59.88163      101.49819       51.86334
N         56.12273       98.95200       52.26254
C         54.70666       98.73612       51.97481
C         54.45307       97.32323       51.48682
O         55.37272       96.51971       51.45147
C         53.88007       99.06235       53.22163
H         56.52809       98.49618       53.09501
H         54.37731       99.40633       51.15126
H         54.16281       98.38624       54.05763
H         54.06702      100.11171       53.53345
H         52.79439       98.94681       53.02382
N         53.21407       96.97280       51.03629
C         52.91335       95.69048       50.41369
C         51.92362       94.92677       51.26453
O         50.80239       94.68066       50.83812
C         52.38256       95.91531       48.98062
C         53.37986       96.62057       48.10773
O         53.05543       97.79341       47.53133
O         54.47653       96.12652       47.89893
H         52.44995       97.66345       51.09174
H         53.82110       95.05151       50.32862
H         51.44414       96.51120       49.01650
H         52.15461       94.93092       48.51538
N         52.32120       94.44850       52.47459
C         51.48499       93.60371       53.30656
C         51.94019       92.15920       53.26407
O         51.31712       91.34914       53.93535
H         53.29136       94.61728       52.78322
H         50.42895       93.61421       52.95912
H         51.49682       93.99557       54.34579
N         52.97361       91.74543       52.46555
C         53.36079       90.34964       52.31515
C         54.80857       90.15159       52.72587
O         55.70073       90.72504       52.11548
C         53.15764       89.91723       50.85027
C         51.70690       89.98022       50.43956
N         50.78514       89.18836       51.03718
O         51.36297       90.74329       49.54930
H         53.49051       92.42891       51.89391
H         52.72833       89.69707       52.95363
H         53.50860       88.87551       50.71351
H         53.76322       90.57619       50.18767
H         51.05802       88.52506       51.77687
H         49.79558       89.22762       50.75153
N         55.10360       89.33020       53.77187
C         56.44918       89.02989       54.23460
C         57.23227       88.17493       53.26112
O         56.78326       87.93944       52.14729
H         54.32669       88.89531       54.29253
H         56.35065       88.43009       55.16539
H         57.00152       89.96107       54.48463
N         58.40565       87.60610       53.66773
C         59.15892       86.67332       52.82892
C         59.90227       87.37741       51.69487
O         60.39916       86.69204       50.81224
C         60.10765       85.77616       53.67385
C         61.28281       86.52169       54.32583
O         59.37207       85.06407       54.64063
H         58.70601       87.77483       54.63869
H         58.41939       85.97434       52.37532
H         60.55966       85.01976       52.99561
H         59.17981       85.67196       55.40163
H         61.93195       86.95341       53.54589
H         60.93687       87.32881       55.00354
H         61.89890       85.80761       54.91189
N         60.02351       88.73716       51.65810
C         60.65766       89.48530       50.57358
C         59.60583       90.37759       49.94166
O         58.63700       90.72496       50.60558
C         61.86799       90.29681       51.14065
C         63.00243       89.36728       51.64726
C         62.43378       91.34161       50.16244
C         63.72819       88.56765       50.55576
H         59.63429       89.29378       52.43293
H         61.00444       88.80097       49.77243
H         61.49743       90.87035       52.02071
H         62.58436       88.66262       52.38478
H         63.76337       89.97880       52.17875
H         63.28434       91.87930       50.63454
H         62.77733       90.87330       49.21855
H         61.66626       92.10463       49.92063
H         64.24417       89.24549       49.84491
H         64.50301       87.92523       51.02389
H         63.03574       87.90886       49.99576
N         59.73065       90.77909       48.64228
C         58.72799       91.59718       47.97579
C         58.26895       90.90072       46.69972
O         58.23976       91.51593       45.64565
C         59.33506       92.99431       47.72902
C         58.35387       94.02745       47.24820
O         57.17188       93.76133       47.09410
O         58.78189       95.28383       47.03045
H         60.56497       90.49606       48.10503
H         57.84186       91.71798       48.63666
H         60.17829       92.90860       47.00931
H         59.74270       93.37169       48.69231
N         57.92800       89.58249       46.72812
C         57.49756       88.82292       45.55165
C         58.54867       88.88075       44.44191
O         59.70808       88.63041       44.73926
C         57.28022       87.33627       45.91837
C         56.32238       87.13384       47.06962
C         56.76667       86.49471       48.24201
C         54.98904       87.57150       46.99122
C         55.89437       86.29713       49.31412
C         54.11941       87.37336       48.06953
C         54.57181       86.73470       49.22804
H         58.00187       89.09290       47.63281
H         56.53059       89.23367       45.19895
H         58.26541       86.88900       46.17921
H         56.89186       86.79274       45.02899
H         57.78908       86.14779       48.32847
H         54.62276       88.06442       46.09981
H         56.24519       85.80371       50.21146
H         53.09385       87.71365       48.00753
H         53.89853       86.57825       50.06053
N         58.23292       89.14918       43.13266
C         59.21226       89.12160       42.05361
C         59.95315       90.44347       41.90337
O         60.84524       90.51573       41.06741
C         58.34806       88.83041       40.82460
C         57.09902       89.63569       41.13660
C         56.88823       89.32313       42.61908
H         59.94928       88.29933       42.18887
H         58.82945       89.04137       39.84510
H         58.05869       87.75472       40.84766
H         57.36470       90.71245       41.03429
H         56.21819       89.42996       40.49277
H         56.33217       90.15399       43.10388
H         56.34383       88.36181       42.74939
N         59.62989       91.53649       42.64871
C         60.33218       92.80811       42.55068
C         61.76657       92.62287       42.99210
O         62.66752       92.93081       42.22521
C         59.64614       93.88888       43.41347
C         58.22935       94.20505       42.90261
C         57.58904       95.28010       43.72264
O         58.10538       96.38342       43.79441
O         56.43146       95.03825       44.36765
H         58.84712       91.46819       43.30820
H         60.31213       93.16957       41.49660
H         60.25183       94.82104       43.35981
H         59.60215       93.56512       44.47591
H         57.58761       93.30023       42.94182
H         58.28080       94.55228       41.84830
N         62.04376       92.09076       44.21614
C         63.38856       91.85809       44.69985
H         64.16281       92.19859       43.98065
H         63.53273       92.40152       45.65630
H         63.52926       90.77118       44.87730
H         61.26508       91.81276       44.83207
Ca        57.26884       96.88101       46.52632
O         57.42404       96.18043       49.35650
H         57.31393       97.01653       49.87358
H         57.22475       95.44858       49.99246
O         59.59701       98.48055       47.38253
H         59.46507       99.36160       46.95067
H         60.47313       98.16451       47.04777
O         56.17778       98.63531       44.30005
H         56.73873       98.67283       43.48513
H         55.80503       99.54785       44.38674
O         55.94590       99.35528       47.56138
H         56.83129       99.19715       47.97505
H         55.30331       98.96629       48.20540

Ca 1.0



