%chk=apoCaM-CA-Ng.loop3.water5.frame412.chk
%nprocshared=20
%mem=10GB
%nosave
#b3lyp/svp scf=(tight,noincore,xqc) Test 
#IOP(5/87=12) Density=Current Pop=(MK,readradii) iop(6/33=2) iop(6/42=6)

apoCaM-CA-Ng.loop3.water5.frame412 

   0  1 
C        108.75173       65.24657      -17.59543
C        108.58910       63.76898      -17.79964
O        109.36352       63.17981      -18.53977
H        109.61119       65.63392      -18.18340
H        107.82996       65.76998      -17.92608
H        108.92753       65.46230      -16.52069
N        107.59506       63.09947      -17.15275
C        107.35904       61.66575      -17.30647
C        106.30026       61.21237      -16.32149
O        105.21533       61.77956      -16.30074
C        106.91359       61.31446      -18.73915
C        106.74114       59.82617      -18.89136
O        107.78566       59.00066      -18.68298
O        105.65440       59.35946      -19.19165
H        106.99790       63.64045      -16.50630
H        108.30944       61.12838      -17.08806
H        107.67500       61.63854      -19.47587
H        105.96076       61.83903      -18.97207
N        106.56361       60.18353      -15.47090
C        105.65623       59.75975      -14.41464
C        106.37039       59.97582      -13.08951
O        107.56425       60.25330      -13.09389
C        105.23539       58.28951      -14.67946
C        104.14004       57.74087      -13.74668
C        103.75193       56.30216      -14.11923
C        102.61957       55.78322      -13.21824
N        102.29720       54.38987      -13.52713
H        107.47034       59.69549      -15.54863
H        104.74510       60.39724      -14.42024
H        106.13199       57.63345      -14.63398
H        104.82949       58.24545      -15.71519
H        103.24306       58.39510      -13.82151
H        104.50017       57.71711      -12.70092
H        104.64404       55.64866      -14.00202
H        103.41544       56.26134      -15.17838
H        101.71304       56.41224      -13.36632
H        102.92397       55.85515      -12.15036
H        102.00618       54.29659      -14.52726
H        103.12843       53.78207      -13.34302
H        101.50983       54.07581      -12.91457
N        105.70302       59.90601      -11.91032
C        106.34857       60.11966      -10.62548
C        106.34602       58.81025       -9.86976
O        105.34185       58.11279       -9.88398
C        105.64615       61.27059       -9.88609
C        106.39169       61.66610       -8.64174
O        106.52505       60.79868       -7.62628
O        106.88600       62.77837       -8.54887
H        104.69171       59.70874      -11.91160
H        107.40661       60.43919      -10.75803
H        104.59689       61.00401       -9.63616
H        105.62765       62.15130      -10.56703
N        107.46292       58.40314       -9.20424
C        107.58778       57.12096       -8.53392
C        106.45024       56.85131       -7.58111
O        105.79561       55.83069       -7.74401
H        108.27789       59.03383       -9.17163
H        108.55320       57.09257       -7.98437
H        107.61177       56.31605       -9.30162
N        106.12909       57.72934       -6.58812
C        105.01078       57.50403       -5.67714
C        103.86905       58.48507       -5.92374
O        103.33836       59.05511       -4.97920
C        105.49767       57.48203       -4.21057
C        106.32211       58.71315       -3.80363
N        106.58332       58.71040       -2.37472
O        105.71031       59.91320       -4.15630
H        106.68038       58.59346       -6.49431
H        104.55121       56.51102       -5.87155
H        106.15379       56.59674       -4.06386
H        104.62055       57.36211       -3.53755
H        107.16394       57.87606       -2.13563
H        107.15472       59.55910       -2.17553
N        103.36619       58.64805       -7.18065
C        102.12767       59.36196       -7.45052
C        102.08692       60.81982       -7.03660
O        100.98931       61.35761       -7.02701
H        103.81616       58.15925       -7.96495
H        101.33093       58.83768       -6.87931
H        101.86740       59.28645       -8.52853
N        103.19745       61.53060       -6.68241
C        103.12323       62.88736       -6.14397
C        103.85425       62.93226       -4.82341
O        105.01741       62.56293       -4.77820
C        103.72369       63.93705       -7.09997
C        103.57093       65.32056       -6.48796
C        102.29163       65.84178       -6.21236
C        104.70069       66.08113       -6.14480
C        102.14889       67.08295       -5.58767
C        104.55545       67.32462       -5.51970
C        103.27751       67.82596       -5.23299
O        103.12142       69.01379       -4.61446
H        104.12445       61.09316       -6.77166
H        102.06410       63.17313       -5.98217
H        103.19725       63.90898       -8.07793
H        104.79377       63.70209       -7.27747
H        101.40010       65.28280       -6.46481
H        105.69368       65.70628       -6.34380
H        101.15822       67.46154       -5.36874
H        105.43656       67.89270       -5.24956
H        103.87519       69.55376       -4.33764
N        103.25173       63.43109       -3.71079
C        103.92921       63.45288       -2.42226
C        104.01417       62.01905       -1.93972
O        105.10813       61.51611       -1.73462
C        103.19192       64.37739       -1.40272
C        103.14130       65.83239       -1.95246
C        103.90873       64.34130       -0.03538
C        102.35433       66.80714       -1.07507
H        102.29301       63.80156       -3.78837
H        104.95115       63.88018       -2.54868
H        102.15136       64.00998       -1.26471
H        102.64491       65.84034       -2.94342
H        104.17376       66.22277       -2.08945
H        104.94660       64.72719       -0.12677
H        103.36476       64.94081        0.72106
H        103.95626       63.30959        0.36427
H        102.83012       66.94162       -0.08348
H        102.32782       67.80198       -1.56877
H        101.31133       66.44959       -0.94334
N        102.87027       61.29831       -1.77168
C        102.82954       59.91524       -1.31180
C        103.41357       59.78293        0.08273
O        104.18394       58.86079        0.31048
C        101.38602       59.38389       -1.34627
O        100.55383       60.13780       -0.50751
H        101.97558       61.76291       -1.99277
H        103.41040       59.27396       -2.01311
H        101.37574       58.31874       -1.02511
H        101.02043       59.44710       -2.39797
H         99.62498       59.85960       -0.71964
N        103.12199       60.70521        1.05073
C        103.62664       60.69133        2.42551
C        105.15360       60.80948        2.56782
O        105.61924       60.84517        3.69863
C        103.10213       59.44589        3.15444
H        102.48212       61.47600        0.80600
H        103.19297       61.57499        2.94542
H        101.99294       59.41194        3.08804
H        103.51149       58.51394        2.71370
H        103.38086       59.47737        4.22877
N        105.99823       60.84815        1.49706
C        107.45294       60.83650        1.60868
C        108.01078       62.20349        1.91643
O        107.69864       63.14314        1.19715
C        108.06912       60.38113        0.28492
H        105.61108       60.80580        0.55276
H        107.76979       60.07844        2.35940
H        107.79157       61.07559       -0.53710
H        109.17692       60.34713        0.36348
H        107.70920       59.35836        0.05062
N        108.92098       62.36613        2.92049
C        109.63546       63.61307        3.17537
C        108.65440       64.71748        3.51440
O        108.63092       65.74709        2.85189
C        110.55274       63.97967        1.97168
C        111.61293       62.91950        1.61485
C        112.71328       62.80684        2.63762
O        113.86240       63.07645        2.32404
O        112.45463       62.38629        3.88949
H        109.15946       61.55458        3.51076
H        110.27857       63.47876        4.06865
H        111.07437       64.94257        2.16535
H        109.92201       64.12906        1.07115
H        112.07591       63.22755        0.65086
H        111.13930       61.92765        1.45390
N        107.79816       64.55766        4.55786
C        106.84150       65.57657        4.92589
H        106.23894       65.23320        5.79274
H        107.37416       66.51005        5.20652
H        106.15886       65.78010        4.07340
H        107.82281       63.68376        5.10540
Ca       107.47013       61.15006       -4.91752
O        107.88573       64.31726       -5.94801
H        108.29847       64.92401       -6.61287
H        107.75855       64.88067       -5.14374
O        109.38355       59.97529       -6.91874
H        109.75273       59.10533       -6.62450
H        110.07147       60.34864       -7.52479
O        108.01997       63.20665       -2.83007
H        107.61562       63.77299       -2.12645
H        108.67250       62.63817       -2.34961
O        109.93377       59.86698       -3.62148
H        109.76455       60.36318       -2.78169
H        109.26024       59.14148       -3.62093
O        110.35369       62.61233       -5.57851
H        111.20362       62.85259       -6.02572
H        110.29677       63.22717       -4.80455

Ca 1.0



