%chk=apoCaM-CA-Ng.loop1.water3.frame1157.chk
%nprocshared=20
%mem=10GB
%nosave
#b3lyp/svp scf=(tight,noincore,xqc) Test 
#IOP(5/87=12) Density=Current Pop=(MK,readradii) iop(6/33=2) iop(6/42=6)

apoCaM-CA-Ng.loop1.water3.frame1157 

   0  1 
C        102.78620       35.58770      103.16816
C        104.19732       35.94385      102.80366
O        104.46932       37.12064      102.62312
H        102.10258       35.88796      102.34568
H        102.67242       34.49715      103.34071
H        102.49797       36.12595      104.09502
N        105.15187       34.97431      102.69474
C        106.54668       35.22826      102.33852
C        106.70739       35.27707      100.82463
O        107.38227       34.43321      100.24873
C        107.45805       34.14510      102.96192
C        107.43229       34.14024      104.46859
O        106.67770       35.01784      105.16003
O        108.11880       33.33514      105.07614
H        104.87911       34.00215      102.90700
H        106.88771       36.20142      102.75725
H        108.50855       34.33333      102.64746
H        107.15404       33.14166      102.59008
N        106.13047       36.28360      100.11736
C        106.28475       36.45242       98.68087
C        107.53747       37.25751       98.40595
O        108.39735       36.73387       97.71038
C        105.00453       37.00019       98.01178
C        103.78301       36.19569       98.47814
C        102.51088       36.57782       97.72714
C        101.31526       35.82023       98.32012
N        100.10052       36.06763       97.54892
H        105.61607       36.99710      100.63323
H        106.42328       35.44676       98.21991
H        105.12954       36.91584       96.90947
H        104.81674       38.06681       98.23471
H        103.62631       36.38364       99.56326
H        103.96985       35.10962       98.32833
H        102.63939       36.31215       96.65539
H        102.32612       37.67171       97.80876
H        101.16192       36.14813       99.37396
H        101.52384       34.72713       98.32304
H         99.30360       35.56454       98.00162
H         99.88949       37.09118       97.52080
H        100.22201       35.70183       96.57651
N        107.81565       38.47240       98.96827
C        106.94939       39.25670       99.85568
C        107.39718       39.12032      101.31186
O        108.40614       38.48502      101.58054
C        106.88496       40.73499       99.40196
C        108.23208       41.39312       99.49111
O        108.45333       42.30264      100.44841
O        109.14698       41.04494       98.76776
H        108.77024       38.81268       98.80502
H        105.91820       38.89377       99.82187
H        106.18233       41.26546      100.07696
H        106.47896       40.82791       98.37195
N        106.63998       39.65495      102.31705
C        106.96567       39.52922      103.73330
C        108.21091       40.28987      104.11961
O        108.81490       40.90592      103.26203
H        105.76360       40.13818      102.07423
H        107.07147       38.45633      104.00243
H        106.12929       39.95629      104.32872
N        108.61906       40.33733      105.41872
C        109.77833       41.10814      105.89919
C        109.70668       41.29384      107.42544
O        109.05575       40.49514      108.08883
C        111.12195       40.41229      105.52921
C        111.39881       40.38551      104.04947
O        111.37831       39.32211      103.45206
O        111.67567       41.52835      103.37710
H        108.01090       39.85596      106.09984
H        109.71800       42.11100      105.43934
H        111.08049       39.37516      105.93029
H        111.99090       40.90545      106.00595
N        110.33968       42.30595      108.09407
C        111.12681       43.35931      107.47164
C        110.29885       44.29801      106.62091
O        109.08085       44.21751      106.60947
H        110.26839       42.32717      109.12359
H        111.93130       42.90527      106.86525
H        111.61743       43.97319      108.25825
N        110.94140       45.21936      105.85356
C        110.27741       46.15068      104.94092
C        109.44824       45.41736      103.88811
O        109.89671       44.40757      103.37417
C        111.34283       47.06344      104.28105
C        110.73431       48.06800      103.29898
O        112.30300       46.28549      103.61479
H        111.97143       45.23959      105.91418
H        109.60245       46.81222      105.52756
H        111.82905       47.63069      105.11126
H        113.15347       46.79846      103.62930
H        109.96494       48.68732      103.80524
H        111.53040       48.73514      102.90685
H        110.27235       47.53946      102.43804
N        108.22823       45.91462      103.51397
C        107.30470       45.33414      102.53186
C        107.86908       45.30280      101.11178
O        109.01688       44.93676      100.91417
C        106.76235       43.93609      102.95818
C        106.27149       43.89888      104.42754
C        105.62832       43.47624      102.01536
C        105.14068       44.87491      104.76638
H        107.91178       46.78351      103.97014
H        106.41727       46.00361      102.50136
H        107.58627       43.19634      102.88446
H        107.12451       44.12141      105.09394
H        105.93189       42.86690      104.66634
H        105.98527       43.38636      100.97199
H        105.24003       42.48439      102.32373
H        104.78667       44.20047      102.01482
H        104.87973       44.76827      105.83993
H        105.45622       45.92442      104.59652
H        104.22995       44.66092      104.17190
N        107.04941       45.57708      100.05219
C        107.45726       45.41704       98.65399
C        108.53998       46.41290       98.24765
O        109.12037       46.25371       97.18295
C        106.20599       45.56465       97.74170
C        106.45086       45.21570       96.26847
O        105.71130       46.87747       97.83961
H        106.07073       45.83405      100.25379
H        107.85120       44.38118       98.54388
H        105.44506       44.84216       98.12348
H        104.74058       46.84171       97.63633
H        107.16638       45.91351       95.79125
H        106.82734       44.17516       96.17727
H        105.49370       45.29208       95.70921
N        108.82409       47.49799       99.02113
C        109.75654       48.54386       98.62309
C        111.16478       47.99444       98.46122
O        111.76832       47.59821       99.44659
C        109.71278       49.68563       99.67426
C        110.72447       50.80187       99.42075
O        108.42446       50.25254       99.69244
H        108.30441       47.62732       99.89937
H        109.41374       48.95957       97.64823
H        109.96521       49.25746      100.67352
H        107.94391       49.89246      100.48301
H        111.76147       50.40627       99.44665
H        110.53705       51.28718       98.44134
H        110.63385       51.56077      100.22765
N        111.75011       47.96725       97.22583
C        113.13264       47.57775       96.96049
C        113.41982       46.17231       97.48463
O        114.26021       45.99603       98.35691
C        114.08470       48.63669       97.54603
C        115.50938       48.48566       96.97758
C        116.51710       49.41541       97.66203
C        116.81969       48.95792       99.10032
N        117.80765       49.82711       99.73209
H        111.18981       48.26283       96.41138
H        113.27655       47.58761       95.85589
H        114.05049       48.56160       98.64959
H        113.72908       49.65424       97.26730
H        115.46427       48.73571       95.89375
H        115.88312       47.44398       97.06231
H        116.14144       50.46207       97.64439
H        117.46669       49.37699       97.08515
H        117.21444       47.91687       99.07197
H        115.90139       48.96034       99.72179
H        118.00459       49.46951      100.69483
H        118.69573       49.82552       99.18024
H        117.43065       50.80001       99.80112
N        112.70536       45.12401       97.00554
C        112.74369       43.78571       97.58522
C        111.33904       43.20511       97.58120
O        110.80547       43.06504       98.67024
C        113.78287       42.84771       96.92539
C        115.18840       42.95527       97.53625
C        116.11406       41.95482       96.90003
O        116.38624       42.03632       95.71300
O        116.64111       40.95626       97.63579
H        111.96679       45.35111       96.32662
H        113.00353       43.86208       98.66558
H        113.82289       43.02307       95.83098
H        113.46753       41.79616       97.11187
H        115.11895       42.72177       98.62202
H        115.61033       43.97298       97.41908
N        110.63455       42.85109       96.46425
C        111.11729       42.91811       95.10064
H        111.98200       42.24357       94.95860
H        110.32136       42.56916       94.41021
H        111.37465       43.95264       94.80917
H        109.67798       42.48811       96.59501
Ca       110.34485       42.31440      101.69925
O        113.23831       41.81321      100.54909
H        113.80780       42.58264      100.80067
H        113.86563       41.05008      100.48796
O        111.26973       39.53499      100.30319
H        111.77725       38.97669      100.94283
H        110.44779       39.78385      100.79333
O        111.88077       44.74005      101.05545
H        112.53365       44.53559      101.76957
H        112.34692       45.38838      100.47453

Ca 1.0



