%chk=apoCaM-CA-Ng.loop1.water6.frame641.chk
%nprocshared=20
%mem=10GB
%nosave
#b3lyp/svp scf=(tight,noincore,xqc) Test 
#IOP(5/87=12) Density=Current Pop=(MK,readradii) iop(6/33=2) iop(6/42=6)

apoCaM-CA-Ng.loop1.water6.frame641 

   0  1 
C         62.12605       38.34922       27.64997
C         60.81296       37.69097       27.34862
O         60.79480       36.61214       26.77422
H         62.97330       37.73728       27.27655
H         62.15994       39.34763       27.16444
H         62.23002       38.47876       28.74836
N         59.66065       38.31161       27.71393
C         58.32583       37.76952       27.47587
C         57.53483       38.67853       26.54090
O         58.02751       39.73272       26.16475
C         57.58080       37.59892       28.82913
C         57.28249       38.90486       29.53617
O         56.57895       38.90912       30.53333
O         57.72066       40.07079       29.02051
H         59.74938       39.22435       28.17867
H         58.39770       36.77106       26.99241
H         58.16022       36.93354       29.50433
H         56.60695       37.10156       28.62976
N         56.27434       38.33389       26.15280
C         55.39980       39.20755       25.38003
C         54.13367       39.45208       26.18766
O         53.38889       38.50309       26.39603
C         55.03700       38.54123       24.03526
C         56.21260       38.44877       23.04769
C         55.74431       37.76561       21.74571
C         56.82324       37.66872       20.65437
N         57.17440       38.97827       20.09798
H         55.89731       37.42062       26.44940
H         55.88474       40.18761       25.17632
H         54.24179       39.13455       23.55042
H         54.62466       37.52567       24.22678
H         57.04630       37.86299       23.49292
H         56.57326       39.47656       22.84016
H         54.86621       38.30070       21.32301
H         55.42849       36.73077       22.00262
H         56.42536       37.03924       19.82771
H         57.72240       37.15564       21.05405
H         57.55182       39.61645       20.82977
H         57.90475       38.85063       19.36032
H         56.33181       39.41774       19.66177
N         53.83404       40.68609       26.70399
C         52.62300       40.92678       27.48912
C         51.95407       42.26253       27.17126
O         52.25844       43.24471       27.83064
C         52.84839       40.69548       29.00055
C         53.89802       41.52415       29.68585
O         54.19439       41.24779       30.83731
O         54.59931       42.48121       29.05638
H         54.51069       41.45512       26.58906
H         51.88682       40.13306       27.26683
H         53.16925       39.63648       29.11839
H         51.88712       40.82130       29.54423
N         50.95837       42.38847       26.24173
C         50.56083       41.34087       25.31771
C         51.60084       41.12602       24.23500
O         51.51930       40.12442       23.54135
H         50.47355       43.29632       26.16253
H         49.62369       41.63337       24.79735
H         50.31988       40.40615       25.86271
N         52.53609       42.08690       23.95946
C         53.50494       41.98587       22.87032
C         54.88430       42.45384       23.31739
O         55.00596       43.02458       24.39166
C         52.99561       42.78159       21.64995
C         52.78769       44.26256       21.87057
O         53.07920       44.85605       23.04442
O         52.34118       44.94092       20.96023
H         52.50670       42.96729       24.48853
H         53.58352       40.93315       22.54004
H         52.01764       42.34388       21.34981
H         53.70104       42.64776       20.80247
N         55.98480       42.23446       22.53943
C         57.28866       42.75092       22.93143
C         58.41357       42.18453       22.09424
O         58.37958       42.30136       20.87853
H         55.88707       41.68825       21.67057
H         57.47875       42.49071       23.99221
H         57.27339       43.85859       22.84392
N         59.46604       41.56977       22.71423
C         60.59279       40.95855       22.01364
C         61.89538       41.66931       22.33839
O         61.92307       42.56290       23.17196
C         60.71313       39.45461       22.39551
C         60.98205       39.21947       23.89211
O         59.54194       38.78427       22.03049
H         59.47386       41.54324       23.74259
H         60.44503       41.03519       20.91375
H         61.56526       39.02171       21.82350
H         59.78047       37.82496       21.93633
H         60.13777       39.57412       24.51499
H         61.10561       38.13325       24.08250
H         61.91083       39.73266       24.21627
N         63.03898       41.26608       21.71571
C         64.35492       41.81652       22.00997
C         64.40561       43.26010       21.54837
O         64.74081       44.12697       22.34503
C         65.48829       40.95641       21.36225
C         65.36889       39.43362       21.68539
C         66.87243       41.47468       21.80108
C         65.27940       39.08254       23.17450
H         62.96350       40.51965       21.01414
H         64.52391       41.77104       23.10896
H         65.43189       41.04876       20.25496
H         66.23694       38.89997       21.24102
H         64.47059       39.00712       21.19602
H         67.67730       40.87148       21.32928
H         67.01718       42.53003       21.49133
H         66.99058       41.41907       22.90379
H         66.17825       39.42001       23.72687
H         64.37280       39.52995       23.63163
H         65.19567       37.98052       23.28478
N         64.01512       43.59123       20.28266
C         63.96673       44.96207       19.78252
C         64.72661       45.06689       18.46515
O         65.19694       44.05995       17.94903
C         62.48070       45.39676       19.62525
C         61.73480       45.30978       20.96056
O         62.39624       46.72193       19.17150
H         63.67189       42.84041       19.66210
H         64.45324       45.65395       20.50628
H         61.99582       44.71445       18.88792
H         61.49827       46.83560       18.76388
H         62.22207       45.96049       21.71908
H         60.68253       45.63813       20.83173
H         61.71895       44.26927       21.32834
N         64.89733       46.28069       17.87502
C         65.60965       46.50244       16.62667
C         66.82228       47.35282       16.94243
O         67.93825       46.89917       16.73580
C         64.64427       47.13005       15.58063
C         65.33933       47.46311       14.25812
O         64.03818       48.29346       16.08651
H         64.53088       47.11455       18.35433
H         65.97253       45.53965       16.19982
H         63.85783       46.36272       15.38109
H         63.11874       48.33746       15.71398
H         64.59415       47.86362       13.53722
H         66.12214       48.23664       14.41137
H         65.80132       46.55378       13.82134
N         66.66536       48.59257       17.48124
C         67.76309       49.44468       17.91233
C         67.54839       49.85098       19.36384
O         66.47115       49.62698       19.89982
C         67.90136       50.64583       16.94537
C         66.58562       51.42260       16.71147
C         66.68223       52.46020       15.58348
C         67.58829       53.65099       15.91102
N         67.60271       54.60077       14.79753
H         65.71249       48.94908       17.62414
H         68.71991       48.87877       17.87462
H         68.21566       50.22918       15.96281
H         68.70660       51.32215       17.30125
H         66.23135       51.89416       17.65284
H         65.80882       50.71275       16.36214
H         65.65821       52.85049       15.39258
H         67.03336       51.95872       14.65397
H         68.62574       53.30649       16.10592
H         67.20373       54.15920       16.82291
H         67.99808       54.14441       13.94304
H         66.63309       54.93841       14.59566
H         68.19951       55.42042       15.05088
N         68.56154       50.41285       20.08358
C         68.41215       50.80033       21.48497
C         67.93215       49.62960       22.35344
O         66.86482       49.77444       22.93336
C         69.70406       51.47014       22.00797
C         69.57930       51.92341       23.47136
C         70.82408       52.62932       23.92590
O         71.18401       53.65822       23.37607
O         71.54317       52.13704       24.95275
H         69.46983       50.56052       19.61735
H         67.62421       51.58703       21.53127
H         69.90647       52.35884       21.37039
H         70.57653       50.80068       21.90697
H         69.41169       51.03746       24.12176
H         68.71514       52.61279       23.58314
N         68.58335       48.43862       22.50460
C         69.83864       48.08186       21.88409
H         70.65946       48.71016       22.27173
H         70.09342       47.03253       22.14682
H         69.76324       48.15267       20.78057
H         68.13812       47.71898       23.09639
Ca        56.75915       42.05730       29.36003
O         60.15487       41.37230       29.81790
H         60.69678       40.72502       30.33443
H         60.59296       41.41598       28.93089
O         56.96771       45.18595       28.48828
H         57.78666       45.74142       28.52066
H         56.76840       45.09331       27.52299
O         56.93033       44.48587       31.52560
H         57.24217       44.43746       32.46401
H         56.19820       45.15228       31.54018
O         58.03319       41.51006       32.28215
H         58.90447       41.20617       32.64095
H         57.41932       40.75058       32.44455
O         59.79138       44.30105       30.07518
H         60.68464       44.04458       29.73368
H         59.85402       45.27804       30.22088
O         58.19233       42.79130       26.74853
H         58.80809       42.42855       26.06387
H         57.32828       42.33934       26.57433

Ca 1.0



