%chk=apoCaM-CA-Ng.loop2.water4.frame1325.chk
%nprocshared=20
%mem=10GB
%nosave
#b3lyp/svp scf=(tight,noincore,xqc) Test 
#IOP(5/87=12) Density=Current Pop=(MK,readradii) iop(6/33=2) iop(6/42=6)

apoCaM-CA-Ng.loop2.water4.frame1325 

   -2  1 
C         56.81458       45.36473      111.67407
C         57.50447       46.69328      111.77927
O         58.53628       46.86075      111.14486
H         55.79128       45.49933      111.26692
H         57.37714       44.69075      110.99255
H         56.76818       44.88913      112.67564
N         57.03244       47.71330      112.55020
C         55.81093       47.67230      113.35502
C         56.11119       47.84679      114.84334
O         55.62171       47.03496      115.61693
C         54.73657       48.68707      112.86751
C         55.14345       50.13365      112.82963
O         54.24071       51.11401      112.67725
O         56.30668       50.46096      112.95004
H         57.59660       48.57363      112.55569
H         55.30427       46.68908      113.25441
H         53.86995       48.59305      113.55906
H         54.38069       48.41100      111.85181
N         56.89899       48.85755      115.32635
C         57.14884       49.07218      116.74689
C         56.77492       50.48000      117.22052
O         56.87755       50.70842      118.41820
C         58.63504       48.81931      117.02361
H         57.39258       49.47476      114.67488
H         56.55877       48.35233      117.35441
H         59.26224       49.53665      116.44990
H         58.86175       48.93158      118.10500
H         58.90784       47.78738      116.71532
N         56.39825       51.48700      116.36900
C         56.16929       52.86373      116.81917
C         54.86720       53.45230      116.28565
O         54.15851       52.79793      115.53392
C         57.39923       53.72623      116.44461
C         57.70907       53.75626      114.97244
O         56.83843       54.32749      114.11533
O         58.76417       53.29714      114.55985
H         56.36865       51.31342      115.35727
H         56.09380       52.89813      117.92731
H         58.27309       53.30409      116.98755
H         57.26596       54.77052      116.79383
N         54.48566       54.70463      116.67923
C         53.28831       55.38939      116.21447
C         53.43315       55.84363      114.77798
O         53.57781       55.00570      113.90352
H         55.06387       55.19863      117.37490
H         53.13717       56.28967      116.84866
H         52.39512       54.74117      116.34563
N         53.40551       57.17343      114.46231
C         53.57111       57.68249      113.10219
C         54.81399       58.55278      113.00150
O         55.48868       58.78022      113.99683
C         52.31112       58.46271      112.67423
C         51.10655       57.55827      112.59670
N         50.01563       57.78245      113.36429
O         51.11296       56.61597      111.81835
H         53.27280       57.86420      115.21743
H         53.72513       56.84556      112.38553
H         52.45074       58.90340      111.66455
H         52.13583       59.29864      113.38648
H         49.98446       58.57320      114.02340
H         49.19571       57.16104      113.29677
N         55.20149       59.02260      111.78260
C         56.42738       59.76728      111.53569
C         57.33261       58.94999      110.63863
O         56.98350       57.81935      110.32969
H         54.62566       58.79197      110.95823
H         56.97176       59.99635      112.47698
H         56.16125       60.72350      111.03689
N         58.51460       59.40461      110.14416
C         59.09074       60.72919      110.35234
C         59.13582       61.47220      109.01995
O         58.68731       62.60805      108.95901
C         60.50105       60.62097      110.99063
C         60.46266       59.94739      112.37317
O         61.41659       59.97020      110.14273
H         59.03575       58.74380      109.54996
H         58.47545       61.33160      111.05549
H         60.87981       61.65439      111.15232
H         61.23541       58.99548      110.17406
H         59.78694       60.50393      113.05666
H         60.10388       58.89889      112.29436
H         61.48144       59.93769      112.81631
N         59.59732       60.85332      107.89485
C         59.62810       61.43718      106.55771
C         58.50275       60.79297      105.74523
O         58.43066       59.57010      105.77559
C         61.01762       61.14630      105.91708
C         62.20641       61.60919      106.80306
C         61.12005       61.74236      104.50403
C         62.25016       63.10833      107.10868
H         59.89915       59.87129      107.96089
H         59.51428       62.52845      106.59304
H         61.12537       60.04264      105.81312
H         63.15704       61.32360      106.30216
H         62.17615       61.06424      107.77000
H         60.32816       61.32341      103.84922
H         61.00955       62.84570      104.52229
H         62.10135       61.48674      104.05197
H         61.34775       63.42704      107.66901
H         63.13682       63.32236      107.74215
H         62.34209       63.70487      106.17915
N         57.59523       61.46321      104.96256
C         57.59166       62.89991      104.65060
C         56.67483       63.21677      103.45563
O         55.84709       62.40550      103.07619
C         57.15459       63.78674      105.84872
C         55.75067       63.49509      106.30386
O         55.43547       62.28219      106.79699
O         54.89530       64.36421      106.24892
H         56.92359       60.86208      104.46367
H         58.61865       63.16566      104.32847
H         57.22634       64.85449      105.54371
H         57.80501       63.67687      106.72780
N         56.78545       64.42637      102.82769
C         55.88700       64.88724      101.76940
C         56.65300       65.13341      100.46915
O         57.60980       65.88793      100.50923
C         55.26588       66.23196      102.22219
C         54.36883       66.82843      101.15997
C         53.15140       66.21533      100.82360
C         54.75977       67.99621      100.47933
C         52.34492       66.75442       99.81592
C         53.95333       68.52881       99.46977
C         52.74732       67.90786       99.13723
H         57.52866       65.06890      103.13613
H         55.06364       64.16883      101.60695
H         56.10011       66.93714      102.43663
H         54.69412       66.10722      103.16702
H         52.83146       65.31698      101.33633
H         55.69707       68.48487      100.71524
H         51.41024       66.27467       99.55708
H         54.26682       69.42022       98.94153
H         52.12577       68.32014       98.35297
N         56.23833       64.63303       99.25320
C         55.08045       63.78561       99.00758
C         55.24741       62.38921       99.55983
O         54.40029       61.93060      100.30860
C         54.95334       63.74990       97.47522
C         55.54470       65.09119       97.09069
C         56.77110       65.12524       97.99697
H         54.17643       64.28245       99.41158
H         55.63146       62.98301       97.03776
H         53.92538       63.54619       97.10580
H         55.76566       65.20653       96.00846
H         54.83972       65.89448       97.40793
H         57.53603       64.40787       97.62445
H         57.19805       66.14906       98.05231
N         56.34817       61.66147       99.21872
C         56.58833       60.30754       99.69030
C         55.86791       59.33224       98.76922
O         56.17066       59.32901       97.58419
C         58.10414       60.01077       99.68373
C         58.88379       60.98943      100.58638
C         60.36902       60.74405      100.57671
O         61.17380       61.55083      101.29258
O         60.86028       59.83889       99.92006
H         57.05648       62.09855       98.61125
H         56.26009       60.22172      100.74708
H         58.49426       60.09094       98.64407
H         58.27139       58.97166      100.04452
H         58.51370       60.90703      101.63119
H         58.72087       62.03177      100.23929
N         54.90398       58.46849       99.19603
C         54.44858       58.37861      100.56411
H         53.65982       57.60058      100.64535
H         55.29116       58.09659      101.22943
H         54.01418       59.34748      100.88550
H         54.46686       57.83881       98.50441
Ca        55.38930       53.02133      112.98877
O         56.17307       55.07984      111.15778
H         56.31802       55.75316      111.86919
H         55.58552       55.52982      110.50100
O         57.46268       52.12064      110.92809
H         57.42309       52.61570      110.07217
H         58.20875       52.53848      111.42728
O         54.27122       52.56188      110.05673
H         54.25498       53.15569      109.26506
H         53.40747       52.07879      110.02461
O         51.88358       53.23873      112.39962
H         52.07749       54.02173      111.82540
H         51.30250       52.66184      111.84405

Ca 1.0



