%chk=apoCaM-CA-Ng.loop1.water3.frame1472.chk
%nprocshared=20
%mem=10GB
%nosave
#b3lyp/svp scf=(tight,noincore,xqc) Test 
#IOP(5/87=12) Density=Current Pop=(MK,readradii) iop(6/33=2) iop(6/42=6)

apoCaM-CA-Ng.loop1.water3.frame1472 

   0  1 
C         57.57909       59.09993       66.38646
C         56.61257       59.41736       67.48669
O         56.94783       60.23355       68.33340
H         58.52146       58.71277       66.83005
H         57.17198       58.33200       65.69718
H         57.80333       60.02140       65.80994
N         55.39539       58.80005       67.55026
C         54.45054       59.02718       68.63797
C         54.24207       57.74758       69.42917
O         53.12684       57.42681       69.81577
C         53.15171       59.66701       68.10776
C         52.47498       58.84136       67.04286
O         52.01800       57.60459       67.31574
O         52.33122       59.29715       65.91986
H         55.14195       58.11771       66.81978
H         54.88180       59.74389       69.36380
H         53.41425       60.65889       67.67742
H         52.44539       59.84291       68.94766
N         55.32196       56.98445       69.74419
C         55.26321       55.81562       70.60827
C         54.82546       56.19007       72.01958
O         53.91765       55.53123       72.50788
C         56.60367       55.04652       70.61963
C         56.90355       54.47509       69.21923
C         58.14511       53.57876       69.19990
C         58.36238       53.00764       67.78892
N         59.52197       52.11884       67.74798
H         56.23836       57.26032       69.36099
H         54.51551       55.09719       70.19960
H         56.50465       54.18963       71.32310
H         57.43876       55.69002       70.97050
H         57.04213       55.30243       68.49125
H         56.03441       53.86161       68.89229
H         58.00109       52.73838       69.91411
H         59.03721       54.16538       69.50890
H         58.51352       53.84285       67.06891
H         57.45908       52.43704       67.47517
H         60.38602       52.64114       68.01951
H         59.37663       51.31000       68.39498
H         59.63701       51.75462       66.77429
N         55.33509       57.22421       72.75851
C         56.32679       58.21144       72.32691
C         55.64936       59.57071       72.16608
O         54.47663       59.69540       72.49068
C         57.52847       58.21682       73.28437
C         57.13080       58.40016       74.71730
O         56.60101       59.43174       75.09475
O         57.35067       57.39938       75.58932
H         54.91777       57.37104       73.69178
H         56.74457       57.96237       71.34568
H         58.26548       58.99435       72.99061
H         58.03024       57.22774       73.19652
N         56.30234       60.61426       71.57455
C         55.60683       61.83779       71.18088
C         55.66908       62.91545       72.23114
O         56.30785       62.72463       73.24688
H         57.25976       60.46311       71.22363
H         54.54844       61.61314       70.92761
H         56.07825       62.24175       70.25963
N         54.99002       64.08653       72.04142
C         55.03527       65.22797       72.96488
C         55.25791       66.52636       72.18484
O         55.21599       66.47561       70.96471
C         53.73559       65.21468       73.81534
C         53.80579       64.01172       74.71610
O         53.00427       63.09662       74.63499
O         54.90255       63.92720       75.49116
H         54.37558       64.15446       71.21641
H         55.91467       65.13008       73.63086
H         52.83820       65.19582       73.15875
H         53.65912       66.09718       74.46932
N         55.53569       67.74250       72.75840
C         55.71453       68.04757       74.17241
C         56.94453       67.40783       74.76730
O         57.91449       67.20254       74.04968
H         55.65192       68.54178       72.11451
H         54.80759       67.84330       74.76692
H         55.87676       69.14327       74.26959
N         56.99864       67.11977       76.10153
C         58.16967       66.50017       76.72951
C         58.40388       65.13500       76.11141
O         57.46392       64.57173       75.58935
C         57.98478       66.37128       78.26415
C         57.89414       67.74195       78.94733
O         59.06737       65.66582       78.81692
H         56.17343       67.34147       76.68014
H         59.05880       67.13875       76.52926
H         57.03881       65.81076       78.44546
H         58.75004       65.27349       79.67299
H         57.74549       67.60621       80.04012
H         58.83467       68.31129       78.78842
H         57.04343       68.33771       78.55921
N         59.65210       64.58921       76.04498
C         59.96912       63.33037       75.36201
C         59.46895       62.06153       76.13436
O         58.41072       62.32599       77.02705
C         59.53825       63.31453       73.86510
C         60.12763       64.53645       73.11573
C         59.96263       61.98880       73.19557
C         59.66382       64.64925       71.66167
H         60.43869       65.12633       76.43995
H         61.07890       63.27517       75.31255
H         58.44735       63.37548       73.80890
H         61.23815       64.50303       73.14392
H         59.80120       65.46443       73.62707
H         61.06791       61.87973       73.21056
H         59.51223       61.11935       73.71721
H         59.60452       61.92866       72.14910
H         58.55455       64.68996       71.61139
H         60.07448       65.58000       71.21743
H         60.03209       63.80098       71.05079
N         60.58784       61.47932       76.88268
C         60.29282       60.17495       77.49728
C         60.70822       60.19628       78.94979
O         60.39221       59.24563       79.65239
C         60.93938       58.98756       76.73126
C         62.47573       58.97452       76.75849
O         60.51633       59.00459       75.39313
H         61.46315       61.44216       76.31864
H         59.19035       60.00748       77.50430
H         60.61751       58.03960       77.22799
H         59.76445       58.36561       75.31737
H         62.91500       59.85391       76.24719
H         62.85126       58.94287       77.80236
H         62.84373       58.06941       76.23101
N         61.39261       61.25483       79.48747
C         61.65161       61.35613       80.91378
C         60.29152       61.48749       81.57120
O         59.65147       62.51008       81.37134
C         62.56983       62.57398       81.20972
C         62.91788       62.70389       82.69126
O         63.77212       62.43966       80.49032
H         61.70178       62.02943       78.88318
H         62.17896       60.43122       81.23848
H         62.04611       63.51489       80.90823
H         63.72008       63.03959       79.69982
H         63.57355       63.58975       82.83899
H         62.00232       62.84069       83.30250
H         63.46241       61.80022       83.03808
N         59.74009       60.43715       82.25067
C         58.35171       60.38695       82.71310
C         57.36189       60.44432       81.55805
O         57.44458       61.33672       80.72841
C         58.00852       61.48665       83.72595
C         58.84148       61.37257       85.00246
C         58.34373       62.38680       86.03383
C         59.11567       62.26682       87.34894
N         58.60197       63.21791       88.33302
H         60.31339       59.59195       82.39474
H         58.19441       59.41714       83.23684
H         56.93753       61.35401       84.00198
H         58.11752       62.49897       83.28437
H         59.91517       61.54835       84.77269
H         58.72599       60.34838       85.42211
H         57.26560       62.19742       86.23558
H         58.45520       63.41564       85.62668
H         60.19489       62.46535       87.16632
H         59.00820       61.23348       87.74886
H         57.59232       63.02254       88.52640
H         59.14229       63.11690       89.22178
H         58.70858       64.19555       87.97689
N         56.32864       59.55795       81.49359
C         55.31630       59.62453       80.44729
C         55.92570       59.31135       79.08868
O         55.82102       60.16258       78.21753
C         54.08771       58.74459       80.76677
C         53.34253       59.25481       82.01277
C         52.11753       58.43201       82.28641
O         52.21801       57.24107       82.53485
O         50.90053       59.00880       82.27130
H         56.23246       58.85116       82.23830
H         54.91587       60.66393       80.40535
H         54.36996       57.68980       80.92480
H         53.38418       58.79753       79.90573
H         53.03592       60.31143       81.84765
H         54.00129       59.21862       82.90580
N         56.60327       58.16497       78.79079
C         56.86483       57.07184       79.70144
H         57.44455       57.42391       80.57756
H         55.92816       56.58024       80.01520
H         57.47128       56.29836       79.18370
H         56.99145       58.07640       77.84456
Ca        56.33469       62.25177       76.03060
O         53.33667       62.29769       78.05138
H         53.14966       61.75688       78.85942
H         53.40450       63.22748       78.38515
O         56.14921       63.40510       78.83615
H         55.70020       62.94987       79.59083
H         57.10838       63.40355       79.07974
O         53.52334       60.32111       75.54016
H         53.45145       59.38585       75.22511
H         54.00981       60.78641       74.81498

Ca 1.0



