%chk=apoCaM-CA-Ng.loop4.water3.frame132.chk
%nprocshared=20
%mem=10GB
%nosave
#b3lyp/svp scf=(tight,noincore,xqc) Test 
#IOP(5/87=12) Density=Current Pop=(MK,readradii) iop(6/33=2) iop(6/42=6)

apoCaM-CA-Ng.loop4.water3.frame132 

   -3  1 
C         52.98009       47.31634       20.91672
C         53.81918       46.13528       21.29899
O         53.86484       45.18468       20.54709
H         52.18342       47.46700       21.67362
H         53.61607       48.22458       20.86143
H         52.50646       47.15502       19.92376
N         54.52628       46.14431       22.45924
C         55.40324       45.07842       22.94130
C         56.57427       44.82541       22.01723
O         56.74049       43.71863       21.54116
C         54.63803       43.83546       23.47039
C         53.95430       42.76582       22.63393
O         54.07155       42.56277       21.30119
O         53.28937       41.94998       23.25284
H         54.45984       46.99047       23.04655
H         55.86706       45.47453       23.87507
H         53.86111       44.24684       24.15270
H         55.34982       43.27120       24.11464
N         57.45038       45.84644       21.77527
C         58.67769       45.81447       20.97398
C         59.74755       44.91587       21.59042
O         60.72317       45.45926       22.09192
C         58.41974       45.53758       19.46732
C         59.72509       45.58536       18.62118
C         57.37677       46.52421       18.90877
C         60.46686       46.92994       18.62995
H         57.23653       46.75344       22.22031
H         59.08252       46.85002       21.03504
H         58.00288       44.51441       19.35614
H         59.47444       45.33774       17.56734
H         60.42665       44.80343       18.98252
H         56.40627       46.40411       19.43410
H         57.70540       47.57643       19.03501
H         57.20570       46.33679       17.82894
H         61.37342       46.85301       17.99403
H         59.83377       47.74278       18.21953
H         60.80240       47.20405       19.65036
N         59.65966       43.55249       21.59550
C         60.65153       42.71480       22.25360
C         61.88479       42.51354       21.37197
O         62.94560       42.93773       21.80892
C         60.02741       41.40929       22.80151
C         58.91526       41.69525       23.77595
O         57.78789       41.27837       23.56130
O         59.15833       42.40317       24.89536
H         58.86638       43.08413       21.14824
H         60.99228       43.24221       23.17603
H         60.81161       40.82440       23.32899
H         59.60757       40.77951       22.00475
N         61.89594       41.90550       20.14310
C         60.72877       41.35609       19.46139
C         61.05956       40.65212       18.14912
O         62.22720       40.59673       17.78980
H         62.81464       41.84371       19.67872
H         60.01466       42.18010       19.27423
H         60.30057       40.58356       20.09448
N         60.11552       40.07299       17.33758
C         58.65931       40.04661       17.51523
C         58.12174       41.46363       17.59315
O         57.53199       41.82473       18.60125
C         58.20936       39.15222       18.69755
C         58.67889       37.72323       18.59361
O         59.36917       37.34368       17.66014
O         58.32061       36.84386       19.54757
H         60.46304       39.63616       16.46885
H         58.20271       39.57271       16.61768
H         57.09825       39.13560       18.71300
H         58.53400       39.55754       19.66853
N         58.33120       42.36991       16.59698
C         58.98001       42.08122       15.32980
C         60.38353       42.61287       15.33188
O         60.83167       43.13089       16.34661
H         58.05324       43.34776       16.75769
H         58.38180       42.54357       14.51462
H         59.02957       40.99810       15.11292
N         61.14304       42.53035       14.20551
C         62.50309       43.04762       14.14496
C         62.48153       44.32842       13.33690
O         63.25190       44.49356       12.40208
C         63.44999       41.97652       13.56493
C         63.51150       40.70315       14.41895
C         64.38471       39.67061       13.74962
N         65.51606       39.22472       14.34246
O         64.06448       39.23092       12.65460
H         60.72035       42.14467       13.34599
H         62.86379       43.33349       15.15681
H         64.47660       42.39459       13.47674
H         63.09094       41.70255       12.55313
H         62.49665       40.26761       14.54682
H         63.90907       40.96296       15.42332
H         65.80909       39.58308       15.26243
H         66.10690       38.52137       13.87404
N         61.56182       45.28283       13.66023
C         61.39683       46.54676       12.95221
C         61.24150       46.31171       11.45975
O         61.91581       46.98155       10.68807
C         60.20576       47.38486       13.52528
C         60.42345       47.73609       15.00830
C         58.82814       46.71853       13.35604
H         60.92021       45.07605       14.43521
H         62.31476       47.15862       13.10185
H         60.17775       48.34738       12.96784
H         61.38956       48.26495       15.14417
H         59.61131       48.40467       15.36644
H         60.41766       46.83389       15.65184
H         58.04438       47.38430       13.77083
H         58.58153       46.56867       12.28633
H         58.77578       45.74279       13.88272
N         60.42281       45.32931       10.98735
C         60.24827       45.03844        9.57165
C         58.78562       45.13332        9.19963
O         58.45618       45.86654        8.28016
C         60.76836       43.63058        9.22042
C         62.21846       43.42987        9.57838
N         63.18884       44.23381        9.08355
O         62.52169       42.51208       10.32198
H         59.92546       44.73661       11.66942
H         60.81601       45.76181        8.94452
H         60.65620       43.47384        8.12504
H         60.16067       42.85771        9.74099
H         62.96487       45.01228        8.44856
H         64.17450       44.07825        9.34392
N         57.84797       44.40024        9.87292
C         56.45157       44.35662        9.45573
C         55.50254       43.93480       10.57177
O         55.92831       43.51385       11.63637
C         56.32329       43.41012        8.22977
C         57.02566       42.07061        8.43779
C         58.09055       41.70640        7.59077
C         56.65684       41.18445        9.46915
C         58.77478       40.50103        7.77883
C         57.35058       39.98504        9.66243
C         58.41405       39.64048        8.81848
O         59.09485       38.48978        8.99667
H         58.14575       43.81385       10.66399
H         56.12181       45.38722        9.19724
H         56.79426       43.92182        7.36297
H         55.25738       43.25003        7.96322
H         58.40025       42.35761        6.78338
H         55.84337       41.41136       10.13729
H         59.59251       40.23917        7.11889
H         57.06190       39.32526       10.47149
H         58.88552       37.87175        9.71175
N         54.15615       44.05661       10.35700
C         53.09931       43.61218       11.26263
C         53.06667       44.33914       12.61035
O         52.19331       44.02959       13.40683
C         53.13037       42.06817       11.35941
C         51.87317       41.47073       12.01687
C         51.84735       39.97821       11.87374
O         52.82979       39.22862       12.40767
O         50.92961       39.43622       11.27801
H         53.84727       44.46145        9.46048
H         52.13262       43.86135       10.76789
H         54.04463       41.71564       11.88165
H         53.15751       41.68827       10.31246
H         50.96753       41.89355       11.52632
H         51.83815       41.70848       13.09759
N         53.89854       45.37959       12.90835
C         53.78532       46.15150       14.14296
C         53.18045       47.52089       13.86219
O         53.00946       48.28223       14.80513
C         55.17219       46.30535       14.80107
C         55.86698       44.98736       15.18318
C         55.20106       44.27611       16.32849
O         55.87788       44.13386       17.48396
O         54.07483       43.82027       16.22043
H         54.58127       45.70897       12.21231
H         53.09427       45.66471       14.86231
H         55.09634       46.93539       15.71586
H         55.82233       46.83892       14.07791
H         56.89637       45.24956       15.51116
H         55.95636       44.31261       14.30677
N         52.79693       47.90182       12.60771
C         52.18614       49.18592       12.34890
H         51.24115       49.27699       12.92555
H         52.88141       50.00235       12.63522
H         51.95014       49.27901       11.26709
H         52.91954       47.27373       11.80140
Ca        55.06852       43.22489       19.37349
O         52.03126       43.00908       18.60733
H         52.57649       43.81007       18.40651
H         51.10083       43.34580       18.62007
O         55.78597       40.21674       20.82515
H         55.81018       39.45756       21.45968
H         56.51422       40.81650       21.12509
O         54.05829       40.37165       18.13866
H         54.13019       39.42161       18.40860
H         54.47709       40.40788       17.24217

Ca 1.0



