%chk=apoCaM-CA-Ng.loop1.water3.frame1133.chk
%nprocshared=20
%mem=10GB
%nosave
#b3lyp/svp scf=(tight,noincore,xqc) Test 
#IOP(5/87=12) Density=Current Pop=(MK,readradii) iop(6/33=2) iop(6/42=6)

apoCaM-CA-Ng.loop1.water3.frame1133 

   0  1 
C         84.60916       35.34921       76.16679
C         85.52942       35.20471       74.99567
O         86.17383       36.17803       74.63780
H         83.56943       35.11844       75.85435
H         84.92233       34.65584       76.97306
H         84.63823       36.39062       76.55661
N         85.61257       34.01980       74.32205
C         86.45923       33.83278       73.14466
C         85.59814       33.76182       71.89702
O         85.72288       32.85236       71.08815
C         87.43058       32.64348       73.33473
C         86.78978       31.28776       73.52459
O         85.57808       31.13986       73.50167
O         87.57807       30.21355       73.71729
H         85.00756       33.24587       74.63152
H         87.09216       34.72977       72.99746
H         88.05984       32.85271       74.22648
H         88.10168       32.58477       72.45046
N         84.68334       34.74726       71.69776
C         83.80312       34.84467       70.54417
C         84.53541       35.42156       69.33960
O         84.49554       34.77314       68.30406
C         82.52689       35.64004       70.89387
C         81.76816       34.93639       72.03425
C         80.49884       35.68555       72.43371
C         79.79685       34.95105       73.58472
N         78.59141       35.66141       74.00386
H         84.57543       35.44727       72.44490
H         83.43147       33.82684       70.28068
H         81.86885       35.68236       69.99790
H         82.76250       36.68030       71.19169
H         82.41893       34.86411       72.93202
H         81.50009       33.90524       71.71272
H         79.81504       35.75462       71.55992
H         80.76971       36.71236       72.76367
H         80.49076       34.86889       74.45190
H         79.52383       33.92234       73.25833
H         78.84055       36.61982       74.34042
H         77.91886       35.72805       73.20599
H         78.14102       35.13396       74.78630
N         85.26774       36.58137       69.34629
C         85.57519       37.40841       70.51368
C         86.92119       36.98285       71.08061
O         87.50711       36.04651       70.55237
C         85.46482       38.90855       70.16766
C         86.39845       39.34999       69.07949
O         87.73258       39.27263       69.24503
O         85.94278       39.80351       68.04349
H         85.77578       36.80655       68.47559
H         84.84493       37.25224       71.31804
H         85.65923       39.52728       71.06890
H         84.41745       39.10932       69.84851
N         87.45019       37.57348       72.19024
C         88.66206       37.07979       72.83441
C         89.78711       38.06822       72.80831
O         89.63844       39.15385       72.26545
H         86.96077       38.37107       72.62430
H         89.03679       36.15571       72.34653
H         88.43598       36.83317       73.89078
N         90.97288       37.72404       73.38921
C         92.15552       38.57758       73.39379
C         92.46805       38.99222       74.83361
O         91.78913       38.49310       75.72207
C         93.32860       37.81876       72.71263
C         92.94212       36.99220       71.49216
O         92.37130       37.53986       70.40282
O         93.14437       35.78875       71.49993
H         91.04461       36.80218       73.84921
H         91.93697       39.49578       72.84274
H         93.75355       37.10597       73.45179
H         94.12149       38.53343       72.42309
N         93.42847       39.88877       75.21323
C         94.34571       40.64118       74.37406
C         93.65776       41.65765       73.49201
O         92.88278       42.45990       73.99203
H         93.52610       40.05619       76.22776
H         95.00990       39.96161       73.80739
H         95.00996       41.22646       75.04744
N         93.97516       41.73245       72.16933
C         93.43796       42.74056       71.24774
C         91.90878       42.56472       70.97533
O         91.41230       41.48426       71.67651
C         94.25931       42.69744       69.92788
C         93.76979       43.67967       68.86377
O         94.32389       41.40129       69.39256
H         94.68709       41.07273       71.82001
H         93.61340       43.74807       71.68867
H         95.30221       42.98574       70.18629
H         93.41123       41.15667       69.11129
H         92.74176       43.41814       68.53209
H         93.77368       44.71601       69.25885
H         94.44259       43.62440       67.98113
N         91.14107       43.77405       71.31730
C         89.67977       43.71765       71.05375
C         89.36392       43.47850       69.58102
O         89.74848       42.46062       69.02208
C         88.88559       42.72717       71.97618
C         89.19191       42.93354       73.48555
C         87.36635       42.80513       71.71999
C         88.84018       44.31825       74.04114
H         91.53417       44.57282       70.76634
H         89.28661       44.72132       71.32002
H         89.14827       41.68353       71.72510
H         90.26983       42.75452       73.67172
H         88.62931       42.17282       74.07046
H         86.97216       43.82476       71.90493
H         87.12959       42.52813       70.67114
H         86.83054       42.08467       72.37544
H         89.43194       45.11218       73.54229
H         87.75872       44.53529       73.92853
H         89.08109       44.34927       75.12453
N         88.56485       44.36742       68.92894
C         88.05597       44.17007       67.57437
C         89.10006       44.33720       66.47363
O         88.74805       44.11385       65.32287
C         86.87575       45.15306       67.30849
C         87.29683       46.63460       67.33436
O         85.86707       44.95974       68.26701
H         88.20641       45.16074       69.47813
H         87.64357       43.13751       67.51395
H         86.45501       44.96200       66.29362
H         85.38031       44.13309       68.01163
H         88.07188       46.84138       66.56758
H         86.41717       47.27653       67.11880
H         87.69464       46.94055       68.32352
N         90.35731       44.80918       66.71485
C         91.26266       45.17574       65.62542
C         91.70181       43.96116       64.82210
O         92.43149       43.13853       65.35612
C         92.49589       45.93481       66.18285
C         93.45907       46.39727       65.08799
O         92.06938       47.06565       66.90221
H         90.63493       45.01772       67.68448
H         90.71590       45.88335       64.96235
H         93.07324       45.25310       66.84277
H         92.16002       46.85757       67.86954
H         94.31558       46.93326       65.54966
H         93.86735       45.52945       64.53081
H         92.94418       47.08159       64.38150
N         91.31471       43.80381       63.51698
C         91.80772       42.73983       62.64225
C         91.58365       41.37243       63.27768
O         92.55040       40.70179       63.61676
C         93.30118       42.98006       62.30046
C         93.60506       44.32334       61.60282
C         92.95655       44.46488       60.21337
C         93.45704       45.70283       59.44183
N         93.10705       46.96412       60.09767
H         90.65400       44.48287       63.10965
H         91.25368       42.76135       61.67910
H         93.65663       42.16000       61.63781
H         93.90188       42.94301       63.23396
H         94.70807       44.37346       61.47224
H         93.29384       45.16309       62.25580
H         91.85027       44.50719       60.30130
H         93.22658       43.57372       59.60608
H         93.00002       45.68968       58.42724
H         94.56108       45.64315       59.31428
H         93.43562       47.75674       59.49929
H         92.07027       47.03605       60.21150
H         93.57818       47.04477       61.02621
N         90.31999       40.90025       63.47567
C         90.03915       39.65708       64.19187
C         89.14016       39.93972       65.39486
O         89.64035       39.79702       66.50108
C         89.51565       38.54456       63.26202
C         90.58898       38.08734       62.26158
C         90.10362       36.92211       61.44659
O         89.12535       37.03680       60.72559
O         90.75036       35.74182       61.50774
H         89.53850       41.46251       63.11753
H         90.98471       39.25196       64.61811
H         88.62888       38.87341       62.69248
H         89.24571       37.66779       63.89269
H         91.49890       37.77179       62.81827
H         90.86319       38.92193       61.58162
N         87.83819       40.35239       65.34133
C         87.01851       40.49502       64.15833
H         86.01111       40.85870       64.45283
H         87.43934       41.22865       63.45031
H         86.85910       39.51044       63.68004
H         87.37608       40.56202       66.23608
Ca        91.94526       39.70363       70.43086
O         92.30435       40.44677       67.00932
H         91.85166       41.31811       67.13686
H         93.19266       40.67467       66.63740
O         92.23149       37.51212       66.89146
H         92.47130       37.64080       65.93944
H         91.29256       37.19970       66.86937
O         89.83460       37.00229       69.24259
H         90.10605       36.15886       69.68557
H         89.16935       36.72431       68.56423

Ca 1.0



