%chk=apoCaM-CA-Ng.loop2.water4.frame786.chk
%nprocshared=20
%mem=10GB
%nosave
#b3lyp/svp scf=(tight,noincore,xqc) Test 
#IOP(5/87=12) Density=Current Pop=(MK,readradii) iop(6/33=2) iop(6/42=6)

apoCaM-CA-Ng.loop2.water4.frame786 

   -2  1 
C         12.85372       -7.03963        4.55761
C         12.96347       -8.34117        5.28914
O         14.06620       -8.73230        5.64871
H         12.11817       -6.40043        5.08590
H         13.83309       -6.51370        4.53469
H         12.50800       -7.21272        3.51654
N         11.84280       -9.07861        5.53907
C         11.89790      -10.34296        6.26072
C         12.16414      -10.10288        7.73784
O         11.29178       -9.64533        8.46760
C         10.62808      -11.17784        6.04618
C         10.71702      -12.55606        6.65773
O         11.85799      -13.00361        7.22219
O          9.74230      -13.28809        6.62679
H         10.94182       -8.73475        5.17340
H         12.72472      -10.93397        5.81673
H         10.47165      -11.30022        4.95173
H          9.75606      -10.63847        6.47234
N         13.39953      -10.38738        8.22223
C         13.82516      -10.16791        9.60130
C         13.67381       -8.70899        9.96516
O         13.65033       -7.92645        9.03242
C         15.29775      -10.59945        9.69160
H         14.09161      -10.73300        7.54132
H         13.19824      -10.77184       10.27871
H         15.77464      -10.27783       10.63337
H         15.34819      -11.70579        9.60297
H         15.88628      -10.17761        8.83987
N         13.54934       -8.21482       11.24160
C         13.47775       -8.97099       12.50569
C         12.21110       -8.67496       13.31679
O         11.35704       -7.91430       12.89383
C         14.77810       -8.77333       13.33426
C         15.30454       -7.37367       13.45375
O         14.50871       -6.30707       13.18063
O         16.48365       -7.24386       13.73050
H         13.50001       -7.19006       11.30763
H         13.40409      -10.05378       12.31478
H         15.56136       -9.36477       12.81182
H         14.71887       -9.19945       14.35424
N         12.01118       -9.31786       14.50179
C         10.81306       -9.18219       15.32113
C          9.71408      -10.12321       14.84983
O         10.06090      -11.25949       14.55620
H         12.74318       -9.95736       14.84669
H         10.51312       -8.12572       15.40992
H         11.09779       -9.53196       16.34144
N          8.37082       -9.82635       14.79199
C          7.69831       -8.58108       15.18240
C          6.86721       -8.03064       14.00271
O          6.38034       -8.81361       13.19676
C          6.71711       -8.85029       16.36634
C          7.24937       -9.79770       17.42266
N          8.29683       -9.47619       18.21211
O          6.71247      -10.88800       17.56166
H          7.75107      -10.59341       14.49096
H          8.42661       -7.82555       15.53138
H          5.80043       -9.33059       15.95897
H          6.40598       -7.88907       16.83702
H          8.73819       -8.54880       18.15765
H          8.65640      -10.16690       18.88994
N          6.60540       -6.69513       13.89468
C          5.73646       -6.08668       12.87926
C          5.79099       -4.57116       13.02035
O          4.77169       -3.93286       13.24821
H          7.04966       -6.07622       14.58528
H          4.68847       -6.45514       12.99220
H          6.07610       -6.35526       11.85341
N          7.00780       -3.95545       12.94690
C          7.26407       -2.53144       13.18323
C          8.37844       -2.01220       12.26271
O          8.90026       -2.74201       11.42725
C          7.71985       -2.28586       14.66095
C          6.64438       -2.47661       15.73111
O          8.83969       -3.08655       14.93412
H          7.82224       -4.56921       12.80081
H          6.35701       -1.92349       12.97064
H          7.99115       -1.21980       14.79791
H          9.18077       -2.82008       15.82636
H          7.08986       -2.18716       16.71170
H          5.78905       -1.79006       15.54425
H          6.30053       -3.52407       15.80163
N          8.78336       -0.71335       12.41697
C          9.83359       -0.01442       11.69477
C         10.83319        0.59589       12.70201
O         10.41146        1.30603       13.60411
C          9.20082        1.17778       10.91210
C         10.28582        1.84120       10.01514
C          7.95689        0.74315       10.10399
C          9.84902        3.08726        9.24865
H          8.27870       -0.13203       13.09081
H         10.33289       -0.70457       10.97196
H          8.83432        1.91370       11.66023
H         10.62413        1.09576        9.27247
H         11.16359        2.14149       10.62892
H          8.20291        0.02342        9.29644
H          7.19926        0.27858       10.77173
H          7.45312        1.62801        9.66768
H         10.67265        3.37220        8.55840
H          8.95591        2.88453        8.62956
H          9.65077        3.94099        9.93183
N         12.17189        0.39908       12.56478
C         13.23441        1.03317       13.33744
C         14.35222        1.67018       12.46415
O         15.14739        2.41141       13.02372
C         13.80052        0.02189       14.36426
C         14.21996       -1.30832       13.80805
O         13.63297       -2.42942       14.27308
O         15.12058       -1.38982       12.99126
H         12.45329       -0.25868       11.87510
H         12.79687        1.86857       13.92376
H         13.00376       -0.18338       15.11169
H         14.66473        0.46064       14.89866
N         14.48469        1.44736       11.11596
C         15.42477        2.12013       10.22492
C         15.68764        1.33463        8.91060
O         15.36413        1.84003        7.84610
C         14.82836        3.52290       10.00242
C         15.49591        4.44457        9.02750
C         14.67906        5.26948        8.23613
C         16.89037        4.56239        8.94445
C         15.24595        6.23018        7.40300
C         17.45707        5.50940        8.08924
C         16.63566        6.35488        7.33197
H         13.80538        0.88499       10.65136
H         16.41744        2.19994       10.71241
H         14.85092        4.04616       10.97968
H         13.75817        3.41744        9.71150
H         13.59868        5.19145        8.29348
H         17.53807        3.93050        9.53798
H         14.60241        6.88430        6.82773
H         18.53360        5.59424        8.03348
H         17.07187        7.10951        6.69289
N         16.32627        0.11112        8.89695
C         16.72767       -0.61842        7.68355
C         15.56442       -1.06075        6.81961
O         15.77515       -1.48343        5.69155
C         17.57637       -1.78841        8.21229
C         17.10352       -1.97932        9.64239
C         16.70072       -0.58609       10.10092
H         17.36880        0.01717        7.03258
H         17.57180       -2.73485        7.62251
H         18.61926       -1.41865        8.27941
H         16.18275       -2.60212        9.61360
H         17.85373       -2.45844       10.30953
H         15.82745       -0.69777       10.76831
H         17.52508       -0.03967       10.60435
N         14.30501       -0.97146        7.29173
C         13.10609       -1.28428        6.54539
C         12.88150       -0.21892        5.48479
O         12.62354       -0.56507        4.34151
C         11.86912       -1.42408        7.47756
C         12.05344       -2.52158        8.58379
C         12.75922       -2.03143        9.80811
O         13.37644       -2.82752       10.72615
O         12.85865       -0.84545        9.90404
H         14.21380       -0.66014        8.24326
H         13.22422       -2.28154        6.06881
H         11.03913       -1.76203        6.82728
H         11.56793       -0.44221        7.90408
H         12.64219       -3.33063        8.13220
H         11.07089       -2.89786        8.92699
N         13.01223        1.10507        5.79665
C         12.86248        2.18624        4.84157
H         12.09566        2.89705        5.21328
H         13.82546        2.73464        4.73931
H         12.55780        1.82445        3.83835
H         13.26169        1.36967        6.75819
Ca        14.47153       -4.13207       12.35565
O         12.16508       -5.12216       11.95409
H         11.93768       -5.73218       12.69192
H         11.63028       -5.40283       11.17598
O         14.41561       -5.12590        9.82491
H         14.29993       -5.84964        9.18921
H         14.07235       -4.38862        9.28708
O         16.48754       -4.28756       14.52252
H         16.85598       -5.11768       14.15684
H         17.25427       -3.94272       15.03593
O         16.85342       -5.07567       11.22540
H         17.80774       -5.20050       11.44496
H         16.79466       -5.28767       10.26148

Ca 1.0



