%chk=apoCaM-CA-Ng.loop1.water4.frame160.chk
%nprocshared=20
%mem=10GB
%nosave
#b3lyp/svp scf=(tight,noincore,xqc) Test 
#IOP(5/87=12) Density=Current Pop=(MK,readradii) iop(6/33=2) iop(6/42=6)

apoCaM-CA-Ng.loop1.water4.frame160 

   0  1 
C         78.29936       51.00560       46.51593
C         79.25317       51.68722       45.58363
O         79.08272       51.58104       44.37700
H         77.50825       50.47071       45.94746
H         78.85386       50.26898       47.13410
H         77.82056       51.75636       47.17804
N         80.29229       52.41369       46.08488
C         81.28540       53.06787       45.24187
C         82.67526       52.54796       45.57615
O         83.59696       53.33765       45.73159
C         81.18278       54.60771       45.36108
C         81.45285       55.12015       46.75340
O         82.41652       55.83792       46.95805
O         80.63245       54.80989       47.77537
H         80.38962       52.48204       47.10832
H         81.09941       52.81609       44.17491
H         80.17143       54.94536       45.04906
H         81.91759       55.05923       44.65790
N         82.89009       51.20833       45.71763
C         84.20026       50.63890       46.00244
C         84.53454       49.57297       44.97737
O         83.73640       48.65784       44.83125
C         84.27117       49.99875       47.39981
C         84.17112       51.03362       48.53523
C         84.53048       50.44170       49.91372
C         86.02725       50.07691       50.03181
N         86.35099       49.55962       51.35987
H         82.08914       50.56405       45.63455
H         84.96029       51.42544       46.00740
H         85.26587       49.51979       47.44962
H         83.50474       49.20366       47.52907
H         83.13210       51.42732       48.55626
H         84.85861       51.88746       48.34439
H         83.89563       49.55309       50.11972
H         84.31245       51.21313       50.68360
H         86.64284       50.98351       49.83450
H         86.30480       49.30461       49.29124
H         87.37490       49.34719       51.40038
H         86.12414       50.26988       52.09240
H         85.81844       48.67750       51.53828
N         85.70318       49.53111       44.26792
C         86.81140       50.48519       44.29927
C         87.35218       50.71448       45.71735
O         87.35232       51.85162       46.16483
C         86.41684       51.81601       43.60581
C         85.77718       51.60005       42.26488
O         84.53099       52.06076       42.04977
O         86.36533       51.00889       41.37430
H         85.83676       48.71382       43.65012
H         87.62960       50.05277       43.68955
H         87.32441       52.44723       43.48559
H         85.69573       52.38861       44.21844
N         87.80933       49.71761       46.52651
C         87.96855       48.33225       46.12243
C         88.31488       47.42066       47.29507
O         88.23270       47.84531       48.43971
H         88.08532       49.99289       47.48214
H         88.76574       48.30116       45.35050
H         87.02738       47.93363       45.69422
N         88.68986       46.12431       47.11572
C         89.02754       45.56690       45.81178
C         90.43387       46.01298       45.41818
O         91.09324       46.69182       46.19327
C         88.79486       44.03724       45.78720
C         89.63412       43.21622       46.73283
O         89.45726       42.00968       46.78790
O         90.57231       43.77935       47.51808
H         88.89288       45.56636       47.95863
H         88.32235       45.96855       45.05260
H         88.96308       43.65577       44.75761
H         87.72487       43.85875       46.03652
N         90.94393       45.70060       44.19826
C         92.22901       46.19649       43.72549
C         92.19501       47.70020       43.50064
O         93.06120       48.42103       43.97284
H         90.39075       45.10881       43.56077
H         92.42376       45.73513       42.73198
H         93.05068       45.88930       44.40755
N         91.20189       48.21087       42.72981
C         91.06055       49.59284       42.26321
C         90.96429       50.64386       43.37336
O         90.10955       50.51541       44.23666
C         89.77080       49.65916       41.39437
C         89.91483       48.89500       40.07629
O         89.45389       50.97956       41.07905
H         90.49563       47.52807       42.41503
H         91.92726       49.86151       41.62102
H         88.92253       49.19974       41.95858
H         88.78792       51.28127       41.74766
H         88.96749       48.97165       39.50219
H         90.73242       49.34013       39.46977
H         90.13214       47.82092       40.23715
N         91.73803       51.78417       43.31966
C         91.52071       52.95425       44.18136
C         91.13124       54.18315       43.33436
O         91.64087       55.27239       43.55858
C         92.74303       53.24564       45.11370
C         94.02564       53.64710       44.32603
C         93.00958       52.04312       46.03527
C         95.14508       54.17773       45.22454
H         92.45136       51.86780       42.58083
H         90.64673       52.76005       44.84288
H         92.45097       54.10455       45.76107
H         93.81098       54.47314       43.62348
H         94.39618       52.79405       43.72139
H         93.33230       51.16092       45.44285
H         93.79592       52.27656       46.78124
H         92.09178       51.77963       46.60180
H         95.99099       54.52146       44.59207
H         94.78220       55.04618       45.81718
H         95.52654       53.39676       45.90983
N         90.17650       54.08176       42.36991
C         89.66706       55.20731       41.58549
C         88.24036       55.43586       42.03745
O         87.28806       55.26663       41.29189
C         89.85449       55.00692       40.05545
C         89.34214       53.67421       39.50998
O         91.22049       55.11823       39.74650
H         89.73474       53.16954       42.23072
H         90.20421       56.15309       41.82284
H         89.30128       55.84138       39.56333
H         91.28191       55.34683       38.78145
H         89.40025       53.67341       38.40101
H         90.00627       52.86887       39.86341
H         88.29855       53.46965       39.81330
N         88.05939       55.82421       43.32538
C         86.77476       55.98034       43.99066
C         85.92099       57.04351       43.31762
O         86.42731       58.12081       43.03823
C         86.99465       56.37432       45.48182
C         87.86155       55.38452       46.27592
O         85.76387       56.49885       46.13894
H         88.91422       56.00145       43.87021
H         86.24075       55.00488       43.97730
H         87.50264       57.36433       45.51372
H         85.28739       55.63081       46.06312
H         88.89145       55.29390       45.87988
H         87.94898       55.73921       47.32462
H         87.38893       54.38406       46.27619
N         84.58049       56.83630       43.14001
C         83.67262       57.86795       42.63815
C         82.78383       57.36551       41.50682
O         81.95219       58.14951       41.05875
C         82.73846       58.34461       43.78209
C         83.48705       58.78873       45.04616
C         82.51479       59.29419       46.12434
C         83.20932       59.69015       47.44269
N         83.80477       58.54605       48.13710
H         84.17057       55.95037       43.47072
H         84.24533       58.75093       42.27853
H         82.04913       57.51800       44.06387
H         82.12651       59.19773       43.41115
H         84.21955       59.58775       44.79994
H         84.02004       57.91064       45.43254
H         81.74627       58.52052       46.34129
H         81.99724       60.19321       45.72487
H         82.44186       60.13844       48.11121
H         83.98764       60.46000       47.24814
H         83.07593       57.82413       48.33401
H         84.58211       58.13419       47.57966
H         84.20130       58.86643       49.04942
N         82.82955       56.08744       41.01922
C         81.80185       55.59668       40.10581
C         80.48034       55.58472       40.86039
O         80.38238       54.88813       41.86288
C         82.12555       54.17928       39.56144
C         81.03117       53.71251       38.57943
C         81.20490       52.35345       37.94354
O         80.31853       51.95616       37.20465
O         82.27385       51.55135       38.13572
H         83.55960       55.43278       41.33879
H         81.75305       56.27787       39.22567
H         82.20797       53.45708       40.40362
H         83.09589       54.22701       39.02476
H         80.94790       54.45744       37.75831
H         80.06219       53.68212       39.12155
N         79.43089       56.34452       40.44246
C         78.15891       56.39449       41.13723
H         77.35110       56.05837       40.45489
H         78.14199       55.75081       42.04253
H         77.95400       57.43888       41.45283
H         79.53275       56.92350       39.59547
Ca        84.19338       51.88203       39.26072
O         83.14503       49.40639       40.64290
H         83.43628       48.68333       41.25289
H         82.76424       50.09792       41.24066
O         84.90494       52.53390       36.22245
H         85.88402       52.66374       36.29378
H         84.51574       53.36223       36.60067
O         86.04729       54.13067       38.80700
H         85.57317       54.97283       38.59702
H         85.77367       53.91775       39.73440
O         87.65689       50.98185       37.91156
H         87.48969       50.17794       37.35808
H         88.63260       51.13367       37.83817

Ca 1.0



