%chk=apoCaM-CA-Ng.loop3.water5.frame298.chk
%nprocshared=20
%mem=10GB
%nosave
#b3lyp/svp scf=(tight,noincore,xqc) Test 
#IOP(5/87=12) Density=Current Pop=(MK,readradii) iop(6/33=2) iop(6/42=6)

apoCaM-CA-Ng.loop3.water5.frame298 

   0  1 
C         90.62107       35.11469       35.31437
C         92.01556       35.05170       35.86182
O         92.80715       34.27754       35.34684
H         89.99389       35.83464       35.88040
H         90.64935       35.42152       34.24848
H         90.15433       34.10910       35.39164
N         92.38085       35.82735       36.92724
C         93.69452       35.80705       37.57215
C         93.95931       34.50316       38.33354
O         95.00730       34.39596       38.95429
C         94.79973       36.17616       36.55161
C         96.14134       36.39564       37.19339
O         96.29328       37.34653       38.13514
O         97.10326       35.72607       36.85166
H         91.68413       36.48143       37.31606
H         93.68808       36.60590       38.34781
H         94.51401       37.12690       36.05267
H         94.89595       35.39059       35.77428
N         93.03690       33.49657       38.38517
C         93.18817       32.27937       39.17200
C         93.20864       31.05489       38.27367
O         93.19914       29.95144       38.80287
C         91.99098       32.17661       40.15403
C         91.79393       33.43190       41.02197
C         92.94844       33.67657       42.00473
C         92.78787       34.99092       42.78676
N         92.93524       36.16657       41.92226
H         92.14526       33.58520       37.88239
H         94.13543       32.27984       39.75134
H         92.10003       31.28281       40.80744
H         91.06138       32.04759       39.55584
H         90.85567       33.31696       41.60858
H         91.65362       34.29462       40.34261
H         93.92596       33.71105       41.48282
H         92.97050       32.82837       42.72409
H         93.58374       35.02699       43.56241
H         91.80321       35.01576       43.30475
H         92.90011       37.02929       42.51078
H         93.85809       36.13640       41.42972
H         92.16445       36.22454       41.22094
N         93.24451       31.16283       36.91018
C         93.15814       30.01896       36.01789
C         94.46689       29.81435       35.27238
O         95.27788       30.72551       35.17789
C         91.95755       30.23235       35.07593
C         91.69894       29.05877       34.18279
O         91.70773       29.19579       32.97037
O         91.43044       27.85378       34.71943
H         93.32531       32.08727       36.46776
H         92.97690       29.09867       36.61553
H         92.12415       31.14757       34.46384
H         91.04554       30.39390       35.69113
N         94.77798       28.56636       34.82729
C         96.06107       28.18520       34.26450
C         96.30686       28.61707       32.83717
O         97.29680       28.15334       32.28926
H         94.10527       27.80449       35.00242
H         96.08366       27.07428       34.23843
H         96.88957       28.51385       34.92848
N         95.48285       29.46203       32.15100
C         95.67032       29.74292       30.72881
C         96.19412       31.14779       30.47523
O         96.36054       31.49916       29.31372
C         94.36495       29.45674       29.95877
C         93.90587       28.03321       30.17643
N         93.96086       27.12638       29.17641
O         93.49450       27.69084       31.27407
H         94.68236       29.90407       32.62407
H         96.44103       29.06811       30.29446
H         94.55999       29.61880       28.87579
H         93.55151       30.15250       30.26201
H         94.34210       27.37746       28.25599
H         93.65530       26.15725       29.33227
N         96.54943       31.98609       31.49281
C         97.13409       33.29886       31.26799
C         96.15697       34.20011       30.56750
O         96.45174       34.69368       29.48932
H         96.44227       31.68302       32.47181
H         98.07145       33.19571       30.67770
H         97.39012       33.75839       32.24618
N         94.94029       34.41557       31.13158
C         93.87769       35.18545       30.50167
C         92.78036       34.23153       30.07743
O         92.89626       33.03536       30.30167
C         93.40505       36.28008       31.47513
C         94.46414       37.34971       31.61153
C         95.21724       37.48579       32.78837
C         94.70317       38.22856       30.54018
C         96.19628       38.48217       32.88829
C         95.67025       39.23057       30.64597
C         96.42374       39.35921       31.82063
O         97.36322       40.32025       31.93466
H         94.72857       33.95401       32.02959
H         94.22618       35.65501       29.55561
H         93.17754       35.80346       32.45464
H         92.47358       36.77497       31.12607
H         95.05713       36.81488       33.62099
H         94.12798       38.14588       29.62564
H         96.77934       38.57332       33.79600
H         95.83313       39.90525       29.81431
H         97.54422       40.94991       31.22183
N         91.72248       34.69110       29.34915
C         90.80053       33.77583       28.68175
C         91.62308       32.99401       27.66391
O         91.64939       31.77137       27.72807
C         89.61622       34.54319       28.01568
C         88.81431       35.41161       29.02859
C         88.65415       33.57676       27.29353
C         88.11758       34.63259       30.15169
H         91.64318       35.70255       29.17899
H         90.36421       33.07416       29.42552
H         90.03399       35.23718       27.25303
H         88.03688       35.97797       28.47117
H         89.48175       36.16347       29.49723
H         87.83235       34.14442       26.80837
H         89.16577       33.00494       26.50624
H         88.22265       32.83251       27.99197
H         88.85000       34.08332       30.77691
H         87.57501       35.34432       30.80798
H         87.36949       33.92089       29.74714
N         92.40711       33.65654       26.76021
C         93.35623       32.97948       25.87742
C         92.68644       32.14588       24.79201
O         93.39583       31.42239       24.10825
C         94.31356       33.99842       25.23487
O         94.98792       34.70714       26.24004
H         92.39895       34.68968       26.77664
H         93.97508       32.30045       26.50730
H         93.72627       34.70050       24.60070
H         95.06240       33.46496       24.60738
H         95.46711       35.44802       25.78625
N         91.33380       32.17553       24.58671
C         90.60500       31.36945       23.60679
C         90.66863       29.86239       23.87681
O         90.10355       29.11057       23.09438
C         91.07836       31.70519       22.18426
H         90.77144       32.82734       25.13855
H         89.53139       31.65738       23.66105
H         90.44761       31.17978       21.43636
H         90.98536       32.79805       22.00546
H         92.13169       31.40508       22.01457
N         91.33197       29.34250       24.94925
C         91.53941       27.91614       25.15968
C         90.40971       27.27361       25.93963
O         89.98053       27.82097       26.94513
C         92.83768       27.71511       25.93827
H         91.79621       29.97621       25.61076
H         91.70729       27.40093       24.18697
H         93.69019       28.14840       25.37223
H         92.76392       28.22235       26.92160
H         93.03325       26.63114       26.08874
N         89.96689       26.03458       25.57580
C         88.99010       25.22406       26.30404
C         87.56446       25.75396       26.23431
O         86.69170       25.09932       26.78924
C         89.40142       24.96636       27.77751
C         90.81051       24.37129       27.92138
C         91.05136       23.90808       29.33248
O         90.35954       23.02357       29.81155
O         92.04318       24.43955       30.06798
H         90.40346       25.59022       24.75322
H         88.95995       24.22830       25.80661
H         88.67091       24.23927       28.19724
H         89.33480       25.89222       28.38665
H         91.56487       25.13690       27.63718
H         90.92586       23.49301       27.25233
N         87.22979       26.88952       25.55612
C         85.86837       27.38186       25.46668
H         85.14425       26.74280       26.01587
H         85.81842       28.40519       25.89150
H         85.55966       27.41439       24.40127
H         87.94889       27.43413       25.06263
Ca        91.10241       26.11522       32.35684
O         89.66355       27.89180       30.46831
H         88.80426       27.87163       29.97974
H         90.31234       28.27086       29.82214
O         91.27110       24.54367       34.97737
H         90.58996       24.28932       35.64765
H         91.54443       23.68700       34.56089
O         88.60977       27.13947       34.09503
H         88.67424       28.12160       33.98103
H         87.98506       27.01647       34.85163
O         88.56930       24.65959       31.97674
H         88.36842       23.76331       31.60861
H         87.82610       24.84417       32.60370
O         93.89726       25.41815       33.17250
H         94.20977       25.29668       34.10372
H         94.66187       25.13310       32.61103

Ca 1.0



