%chk=apoCaM-CA-Ng.loop4.water4.frame185.chk
%nprocshared=20
%mem=10GB
%nosave
#b3lyp/svp scf=(tight,noincore,xqc) Test 
#IOP(5/87=12) Density=Current Pop=(MK,readradii) iop(6/33=2) iop(6/42=6)

apoCaM-CA-Ng.loop4.water4.frame185 

   -3  1 
C        -12.51342       44.28470        9.00609
C        -13.86597       44.23142        8.36435
O        -13.91679       44.10984        7.15423
H        -11.94736       45.15159        8.60552
H        -12.58689       44.37708       10.10855
H        -11.96039       43.35167        8.76282
N        -15.00698       44.28224        9.11160
C        -16.35509       44.16872        8.56169
C        -16.55274       42.85117        7.84395
O        -16.82342       42.84562        6.65935
C        -16.84127       45.43512        7.80279
C        -16.00489       46.13575        6.74695
O        -15.61482       45.59946        5.56842
O        -15.74318       47.31414        6.93225
H        -14.91919       44.35097       10.13677
H        -17.07108       44.10872        9.41428
H        -17.00650       46.19903        8.59769
H        -17.84508       45.22004        7.37611
N        -16.46552       41.69203        8.56413
C        -16.66019       40.31484        8.09751
C        -18.11376       40.03064        7.69869
O        -18.77013       39.29175        8.42030
C        -15.61938       39.89173        7.02468
C        -15.70286       38.37637        6.68284
C        -14.18851       40.26544        7.45860
C        -15.38676       37.41768        7.84090
H        -16.23211       41.78954        9.56539
H        -16.46197       39.68728        8.99404
H        -15.83035       40.45483        6.09227
H        -14.97763       38.15835        5.87176
H        -16.71780       38.13967        6.29794
H        -13.45704       39.95646        6.68254
H        -14.09244       41.36253        7.58539
H        -13.91804       39.78922        8.42334
H        -16.10709       37.52841        8.67580
H        -15.45496       36.37071        7.47861
H        -14.35605       37.57111        8.22122
N        -18.69826       40.58440        6.59517
C        -20.11276       40.42511        6.28079
C        -20.42748       39.01691        5.75278
O        -21.18569       38.33249        6.42487
C        -20.59304       41.59982        5.39120
C        -22.05787       41.51411        5.07166
O        -22.43090       41.47038        3.91024
O        -22.96777       41.50534        6.06445
H        -18.14840       41.18918        5.98114
H        -20.68372       40.57024        7.22767
H        -20.00837       41.69009        4.46206
H        -20.41437       42.55067        5.93952
N        -19.92389       38.47466        4.59901
C        -19.02501       39.17653        3.69945
C        -18.60907       38.39000        2.46409
O        -19.03518       37.25395        2.31403
H        -20.21283       37.51188        4.36804
H        -18.12283       39.44694        4.27454
H        -19.56278       40.04289        3.32260
N        -17.76244       38.89592        1.50667
C        -17.11100       40.21187        1.49760
C        -16.29156       40.38335        2.76325
O        -16.58547       41.27444        3.54761
C        -18.10815       41.36979        1.24856
C        -18.89980       41.15629       -0.01007
O        -18.33252       41.05063       -1.08590
O        -20.24359       41.08693        0.04396
H        -17.52254       38.27189        0.71992
H        -16.41452       40.25966        0.63152
H        -17.54130       42.32016        1.15082
H        -18.80381       41.51326        2.08818
N        -15.27952       39.53089        3.08986
C        -14.72371       38.51798        2.21290
C        -15.01466       37.12794        2.69369
O        -15.75773       36.94095        3.64786
H        -14.84388       39.61817        4.01721
H        -13.62500       38.67514        2.16805
H        -15.10096       38.58951        1.17657
N        -14.43766       36.08581        2.04010
C        -14.65701       34.69023        2.38077
C        -13.42733       34.07035        3.03420
O        -13.51474       32.92128        3.43931
C        -15.22625       33.92394        1.16060
C        -14.43768       34.03077       -0.15950
C        -13.07233       33.41092       -0.10207
N        -12.93054       32.08747        0.13390
O        -12.08564       34.10258       -0.30290
H        -13.77941       36.30399        1.27656
H        -15.43694       34.60910        3.17101
H        -16.22873       34.35877        0.95090
H        -15.38708       32.85838        1.43111
H        -14.36379       35.09491       -0.46721
H        -15.01245       33.51228       -0.95665
H        -13.75368       31.48666        0.28336
H        -11.99695       31.65747        0.14806
N        -12.30436       34.81077        3.29601
C        -11.24381       34.36009        4.19725
C         -9.86838       34.31494        3.54770
O         -8.92674       33.98913        4.26336
C        -11.23436       35.25283        5.47886
C        -12.56432       35.13099        6.24101
C        -10.93343       36.73543        5.19310
H        -12.23569       35.77395        2.94700
H        -11.44011       33.32165        4.54342
H        -10.43793       34.87231        6.15703
H        -12.52168       35.71247        7.18664
H        -13.41237       35.51287        5.63323
H        -12.76087       34.06873        6.50084
H        -10.87804       37.30044        6.14826
H         -9.95887       36.84532        4.67393
H        -11.72770       37.20296        4.57577
N         -9.65560       34.55931        2.22080
C         -8.33448       34.42913        1.60591
C         -7.87525       35.66882        0.84742
O         -6.72390       35.67563        0.43977
C         -8.34310       33.23378        0.62780
C         -8.66651       31.92931        1.31289
N         -7.85404       31.42768        2.27125
O         -9.66560       31.30880        0.98684
H        -10.46153       34.76658        1.61351
H         -7.56244       34.24246        2.38397
H         -7.35143       33.12412        0.13801
H         -9.09789       33.43155       -0.16649
H         -6.99679       31.92464        2.55115
H         -8.07925       30.53149        2.72834
N         -8.71451       36.70332        0.53161
C         -8.31764       37.76286       -0.39324
C         -8.83593       39.12411        0.03815
O        -10.03205       39.27129        0.23969
C         -8.89993       37.45081       -1.78959
C         -8.33839       36.17822       -2.38539
C         -6.96947       36.07633       -2.69550
C         -9.18091       35.08635       -2.65181
C         -6.45596       34.90379       -3.25880
C         -8.66451       33.91393       -3.21267
C         -7.30341       33.81789       -3.51959
O         -6.82377       32.68233       -4.06648
H         -9.70448       36.65719        0.80187
H         -7.21327       37.81484       -0.50468
H         -8.66394       38.28181       -2.49100
H        -10.00723       37.38369       -1.70652
H         -6.29875       36.90538       -2.50803
H        -10.23769       35.13963       -2.42411
H         -5.40069       34.84162       -3.49491
H         -9.32489       33.07950       -3.41160
H         -5.89062       32.57736       -4.30151
N         -7.98652       40.19627        0.06554
C         -8.41149       41.59408        0.16651
C         -8.95694       41.99678        1.53722
O         -9.28647       43.16288        1.69717
C         -9.36210       41.91840       -1.02068
C         -9.61973       43.41712       -1.25191
C        -10.47387       43.62949       -2.46985
O        -10.08752       43.25947       -3.56745
O        -11.66921       44.23965       -2.35683
H         -6.98684       40.03332       -0.12792
H         -7.49931       42.21531        0.01459
H        -10.33518       41.39987       -0.89800
H         -8.87454       41.52824       -1.94295
H         -8.65355       43.94762       -1.39649
H        -10.14738       43.86191       -0.38705
N         -8.99196       41.14197        2.60200
C         -9.38774       41.57496        3.94237
C         -8.17960       41.67829        4.86327
O         -8.36351       42.08950        6.00105
C        -10.42671       40.60290        4.54448
C        -11.75142       40.49338        3.77199
C        -12.57934       41.74899        3.84269
O        -12.18643       42.78653        3.33684
O        -13.77408       41.72221        4.46600
H         -8.64955       40.17659        2.49476
H         -9.81439       42.59894        3.92043
H        -10.66799       40.90409        5.58881
H         -9.96274       39.59349        4.58432
H        -12.33696       39.67914        4.25129
H        -11.57031       40.20568        2.71502
N         -6.91669       41.35836        4.44986
C         -5.74710       41.48679        5.29510
H         -5.02220       42.17455        4.81106
H         -5.98882       41.88941        6.30090
H         -5.27251       40.49152        5.41825
H         -6.74899       41.01142        3.49578
Ca       -15.03589       43.56726        4.76040
O        -16.08758       45.99633        2.62092
H        -16.26494       46.24981        1.68074
H        -15.79335       46.83671        3.05397
O        -13.13086       45.74053        3.75181
H        -12.29131       45.50420        4.22029
H        -13.01608       45.38345        2.83537
O        -15.05792       43.44840        1.19056
H        -14.49543       42.92777        1.81616
H        -14.99897       42.95380        0.33502
O        -18.31915       44.03694        3.70563
H        -18.51329       44.95169        4.03095
H        -18.88977       43.93440        2.90304

Ca 1.0



