%chk=apoCaM-CA-Ng.loop2.water3.frame185.chk
%nprocshared=20
%mem=10GB
%nosave
#b3lyp/svp scf=(tight,noincore,xqc) Test 
#IOP(5/87=12) Density=Current Pop=(MK,readradii) iop(6/33=2) iop(6/42=6)

apoCaM-CA-Ng.loop2.water3.frame185 

   -2  1 
C         14.52456       54.10971       19.29051
C         15.84655       54.53209       19.86175
O         16.84651       53.89362       19.56688
H         13.70377       54.77544       19.63216
H         14.56996       54.14653       18.18228
H         14.29381       53.07293       19.61365
N         15.92209       55.60046       20.70319
C         17.16194       56.07215       21.30526
C         17.14480       55.88877       22.82171
O         18.10853       56.29683       23.44427
C         17.36761       57.54787       20.89414
C         18.67324       58.12350       21.37417
O         18.67825       59.19747       22.18704
O         19.73224       57.62431       21.02779
H         15.05447       56.10781       20.93925
H         18.02906       55.48809       20.92438
H         16.52677       58.16074       21.28631
H         17.35904       57.61613       19.78455
N         16.10370       55.27851       23.47422
C         16.00546       55.01236       24.91107
C         16.95980       53.92307       25.39154
O         16.47655       52.87606       25.78871
C         16.11264       56.28922       25.75182
H         15.28954       54.96876       22.92591
H         14.97765       54.61456       25.08504
H         15.35063       57.02506       25.41848
H         15.92396       56.04952       26.82047
H         17.11573       56.75376       25.67645
N         18.30866       54.09770       25.43373
C         19.25282       53.10595       25.93424
C         20.25488       52.67724       24.86312
O         21.22086       52.01031       25.20771
C         19.93397       53.67515       27.19877
C         20.60583       55.00398       26.97847
O         20.17858       56.08841       27.65454
O         21.52978       55.11102       26.18892
H         18.71008       54.99268       25.14895
H         18.73928       52.17587       26.25748
H         20.67137       52.94628       27.59814
H         19.14683       53.80959       27.97369
N         20.05580       52.94756       23.53743
C         20.96430       52.52177       22.47947
C         21.19740       51.02452       22.49588
O         22.34394       50.60611       22.57728
H         19.20835       53.45424       23.24290
H         21.93529       53.05286       22.58983
H         20.52899       52.80815       21.49728
N         20.14871       50.15632       22.47685
C         20.32035       48.71050       22.60265
C         20.90118       48.08498       21.34958
O         20.33051       48.22683       20.27702
C         18.99419       48.00671       22.93464
C         18.53299       48.36026       24.32648
N         18.52430       47.41878       25.29974
O         18.18933       49.50344       24.58646
H         19.19514       50.54947       22.45748
H         20.99426       48.49908       23.46490
H         19.18294       46.91021       22.90414
H         18.20774       48.23755       22.18452
H         18.82915       46.45291       25.10845
H         18.23678       47.65814       26.25772
N         22.01614       47.30801       21.44499
C         22.59920       46.58051       20.33312
C         21.68344       45.48973       19.81785
O         21.28496       44.63522       20.59753
H         22.47620       47.20642       22.36288
H         23.52056       46.07270       20.69472
H         22.89684       47.28717       19.53039
N         21.35869       45.42468       18.49388
C         20.65400       44.28405       17.90233
C         19.13547       44.43972       17.90561
O         18.46179       43.48880       17.53541
C         21.20978       43.94900       16.48740
C         20.99248       45.04791       15.43237
O         22.57175       43.60455       16.56147
H         21.75164       46.14614       17.87412
H         20.86640       43.38291       18.52107
H         20.67189       43.04786       16.11977
H         23.08512       44.42238       16.79035
H         19.91387       45.26986       15.31851
H         21.52699       45.98459       15.68915
H         21.38008       44.69997       14.45137
N         18.52396       45.58433       18.32400
C         17.06938       45.74638       18.41617
C         16.68359       46.04308       19.86114
O         17.56305       46.08640       20.71037
C         16.57812       46.86356       17.43895
C         17.24282       48.23728       17.72132
C         16.78663       46.41296       15.98316
C         16.60080       49.39017       16.94673
H         19.10782       46.37963       18.61628
H         16.53946       44.80842       18.14024
H         15.48272       46.97814       17.57100
H         18.32661       48.20059       17.48011
H         17.13530       48.48192       18.79846
H         16.34573       47.13522       15.26789
H         17.86451       46.29809       15.75642
H         16.27830       45.43971       15.81108
H         15.52370       49.47115       17.20761
H         17.10125       50.34224       17.22254
H         16.70532       49.25913       15.85152
N         15.38564       46.30927       20.20492
C         15.01659       46.79050       21.53128
C         13.72668       46.14142       22.06970
O         13.25786       46.55764       23.12007
C         14.93096       48.32926       21.42847
C         15.00245       49.03999       22.74895
O         15.00570       50.26041       22.76814
O         15.12548       48.35757       23.90405
H         14.66620       46.33617       19.46916
H         15.83639       46.57118       22.25040
H         14.02515       48.62824       20.85924
H         15.82307       48.69058       20.87016
N         13.12034       45.08855       21.43990
C         11.91745       44.42547       21.95425
C         10.69739       45.33547       21.82392
O         10.41639       45.74017       20.70495
C         11.64026       43.13563       21.14741
C         10.43212       42.39843       21.67881
C         10.46276       41.80109       22.95098
C          9.25750       42.31764       20.91174
C          9.33432       41.14283       23.44901
C          8.13010       41.66238       21.41524
C          8.16797       41.07596       22.68283
H         13.55653       44.69935       20.59211
H         12.10961       44.12785       23.00580
H         12.51977       42.45691       21.18093
H         11.48080       43.41874       20.08304
H         11.35798       41.84915       23.55854
H          9.20806       42.77526       19.93166
H          9.36287       40.68798       24.43075
H          7.22535       41.61320       20.82356
H          7.29341       40.57059       23.07133
N          9.87988       45.66075       22.87596
C          8.71187       46.52659       22.76119
C          9.05553       47.88025       22.17386
O          8.39429       48.32776       21.24800
C          8.23629       46.69263       24.21400
C          8.61806       45.36271       24.81378
C         10.01219       45.14982       24.22590
H          7.93350       46.00670       22.15711
H          8.85465       47.45047       24.74623
H          7.16872       46.98364       24.31765
H          8.56621       45.30500       25.92168
H          7.93142       44.59604       24.38399
H         10.79487       45.73458       24.75620
H         10.22694       44.06675       24.27706
N         10.10870       48.57812       22.68265
C         10.50817       49.91267       22.24248
C         10.91640       49.95617       20.77522
O         10.96402       51.04622       20.22167
C         11.67114       50.40565       23.13243
C         11.20502       50.62181       24.58692
C         12.33898       50.80131       25.59700
O         13.24807       51.79398       25.21462
O         13.05358       49.60895       25.76493
H         10.64566       48.12911       23.44007
H          9.63439       50.59159       22.36300
H         12.09612       51.36085       22.75364
H         12.45974       49.62870       23.09168
H         10.61419       49.75868       24.95595
H         10.54156       51.51129       24.61112
N         11.22362       48.83017       20.07603
C         11.53561       48.85141       18.66382
H         12.41109       49.50541       18.47076
H         11.77086       47.82314       18.31370
H         10.65724       49.22258       18.09270
H         11.24936       47.92688       20.55632
Ca        15.10671       50.54073       25.62794
O         17.87559       50.05443       27.72081
H         18.76409       49.87943       27.32054
H         18.06832       50.61719       28.51191
O         14.98212       51.24835       28.48085
H         14.52792       52.10709       28.67133
H         15.28589       50.92202       29.36455
O         15.72568       47.74010       27.19224
H         16.40629       47.47331       27.86045
H         15.63353       46.94961       26.60300

Ca 1.0



