%chk=apoCaM-CA-Ng.loop2.water2.frame856.chk
%nprocshared=20
%mem=10GB
%nosave
#b3lyp/svp scf=(tight,noincore,xqc) Test 
#IOP(5/87=12) Density=Current Pop=(MK,readradii) iop(6/33=2) iop(6/42=6)

apoCaM-CA-Ng.loop2.water2.frame856 

   -2  1 
C         47.41288       56.98950       -8.30416
C         46.24032       57.67923       -8.93593
O         45.15631       57.11303       -8.93188
H         48.33183       57.60883       -8.36799
H         47.19156       56.79917       -7.23231
H         47.59698       56.02152       -8.81441
N         46.37621       58.91844       -9.49073
C         45.25433       59.64996      -10.06972
C         44.19943       59.85792       -8.99955
O         43.07514       59.41519       -9.18717
C         45.73529       60.98807      -10.66866
C         44.62206       61.73150      -11.35344
O         44.28176       62.96710      -10.94097
O         44.03193       61.22583      -12.29532
H         47.30835       59.36117       -9.48407
H         44.82862       59.04465      -10.90293
H         46.52543       60.78347      -11.42410
H         46.17820       61.62595       -9.87398
N         44.52245       60.46722       -7.82074
C         43.60997       60.54435       -6.68131
C         44.27283       61.28032       -5.51350
O         45.40395       60.93003       -5.20349
C         43.25607       59.13369       -6.18146
H         45.47649       60.84683       -7.72061
H         42.68017       61.02368       -7.02322
H         42.73878       58.53539       -6.95634
H         44.17214       58.58664       -5.87078
H         42.56859       59.20710       -5.31131
N         43.67446       62.24541       -4.74780
C         42.30432       62.73823       -4.86789
C         42.28334       64.24339       -5.06279
O         43.32208       64.88430       -4.98173
C         41.45481       62.27831       -3.65805
C         41.94717       62.73862       -2.30973
O         41.14930       63.48472       -1.52458
O         43.03603       62.38377       -1.88835
H         44.23993       62.63333       -3.97816
H         41.80477       62.31820       -5.75102
H         41.42918       61.16666       -3.64823
H         40.41033       62.63164       -3.79621
N         41.12147       64.85911       -5.41754
C         41.03594       66.26767       -5.75847
C         39.81071       66.89867       -5.14845
O         38.91807       67.24529       -5.90975
H         40.27908       64.28043       -5.56156
H         40.91563       66.31836       -6.86344
H         41.95503       66.83538       -5.50679
N         39.62884       67.09064       -3.81269
C         40.58978       66.80364       -2.74999
C         41.79295       67.73364       -2.87341
O         41.59112       68.93368       -3.00181
C         39.86745       67.01920       -1.39594
C         40.61624       66.58939       -0.16288
N         40.03770       66.75877        1.04836
O         41.71977       66.07473       -0.24130
H         38.71570       67.48880       -3.53628
H         40.89033       65.73637       -2.79990
H         38.92986       66.42051       -1.40352
H         39.59385       68.09218       -1.29457
H         39.09942       67.17654        1.12704
H         40.51854       66.47809        1.91177
N         43.07144       67.25616       -2.81718
C         44.25342       68.09636       -2.99857
C         45.03935       68.34245       -1.71988
O         46.05864       69.01308       -1.79300
H         43.21789       66.25391       -2.63028
H         43.97134       69.09914       -3.38590
H         44.90421       67.62211       -3.76404
N         44.59626       67.90304       -0.50892
C         45.21540       68.23175        0.77497
C         45.60418       66.96076        1.52360
O         45.53445       65.88304        0.95174
C         44.23045       69.12827        1.57721
C         44.07121       70.49668        0.90742
O         42.96937       68.51876        1.68976
H         43.72925       67.35848       -0.47015
H         46.15464       68.81420        0.64709
H         44.62954       69.36629        2.58687
H         42.98932       67.95266        2.50405
H         43.38584       71.13340        1.50568
H         45.05809       71.00806        0.85627
H         43.66384       70.40077       -0.12017
N         46.03235       67.02227        2.81982
C         46.47358       65.86959        3.59621
C         45.37239       65.47863        4.57247
O         44.97475       66.28295        5.40259
C         47.80758       66.22063        4.32256
C         48.28459       65.14180        5.32969
C         48.91413       66.54982        3.30356
C         48.67795       63.80142        4.71133
H         46.03483       67.92973        3.30407
H         46.65949       65.00340        2.92463
H         47.62691       67.13607        4.92988
H         47.48972       64.96793        6.08686
H         49.16869       65.53397        5.87866
H         49.12057       65.68054        2.64441
H         48.61509       67.40086        2.65737
H         49.85008       66.83309        3.83006
H         47.83196       63.34673        4.15936
H         49.54065       63.91214        4.02587
H         48.98851       63.11983        5.52877
N         44.84499       64.22309        4.50635
C         43.78538       63.69915        5.36390
C         44.28306       62.51363        6.20144
O         43.48230       61.95158        6.93919
C         42.59941       63.29540        4.46533
C         41.96748       64.49916        3.81540
O         41.33909       65.28920        4.50158
O         42.09676       64.74106        2.49398
H         45.21761       63.58159        3.79397
H         43.43242       64.46740        6.08752
H         41.80792       62.77608        5.04855
H         42.95567       62.58986        3.69400
N         45.59822       62.13949        6.21599
C         46.17300       61.16065        7.13464
C         47.18273       60.25304        6.41524
O         48.10045       60.78906        5.80714
C         46.91855       61.95789        8.22687
C         47.62947       61.06758        9.21539
C         49.03355       61.05601        9.25419
C         46.91007       60.23969       10.09376
C         49.70805       60.22104       10.14643
C         47.58999       59.40766       10.98983
C         48.98770       59.39657       11.01359
H         46.26892       62.67381        5.65229
H         45.37790       60.57204        7.63952
H         46.21046       62.61946        8.77313
H         47.65715       62.61966        7.72262
H         49.60703       61.68393        8.58347
H         45.82702       60.23602       10.08339
H         50.78994       60.21264       10.16152
H         47.03435       58.76887       11.66399
H         49.51376       58.74975       11.70317
N         47.15892       58.88508        6.49485
C         48.22951       58.02177        5.99583
C         48.15587       57.73709        4.49670
O         48.83881       56.82607        4.04997
C         48.04253       56.75144        6.83413
C         46.53923       56.66774        6.95262
C         46.17772       58.12106        7.24582
H         49.24562       58.40935        6.23327
H         48.55556       55.84412        6.44919
H         48.43727       56.95342        7.85809
H         46.14334       56.39079        5.95011
H         46.16273       55.94049        7.70338
H         45.13057       58.31876        6.93447
H         46.31037       58.34249        8.32391
N         47.39245       58.48516        3.65112
C         47.27227       58.21850        2.21400
C         48.58074       58.28448        1.43133
O         48.55247       57.96021        0.25126
C         46.24053       59.18794        1.60931
C         46.73267       60.65050        1.59213
C         45.55243       61.55602        1.54944
O         45.31613       62.40851        0.54056
O         44.77238       61.52510        2.48474
H         46.83664       59.25354        4.04787
H         46.86672       57.18807        2.11182
H         45.33093       59.08570        2.24347
H         45.94815       58.90143        0.57551
H         47.42878       60.81535        0.74083
H         47.27311       60.91133        2.52778
N         49.75814       58.68595        1.98988
C         50.99208       58.70038        1.23491
H         51.82849       59.04133        1.88105
H         51.22308       57.67595        0.87067
H         50.90165       59.39017        0.36958
H         49.80041       58.99078        2.97128
Ca        43.64551       63.77013        1.18142
O         45.21498       64.52807       -2.02214
H         46.16210       64.27670       -1.88437
H         45.16155       64.76643       -2.98126
O         41.96360       61.16230        1.18317
H         42.00521       60.88422        2.13247
H         42.39907       60.42278        0.68946

Ca 1.0



