%chk=apoCaM-CA-Ng.loop1.water4.frame257.chk
%nprocshared=20
%mem=10GB
%nosave
#b3lyp/svp scf=(tight,noincore,xqc) Test 
#IOP(5/87=12) Density=Current Pop=(MK,readradii) iop(6/33=2) iop(6/42=6)

apoCaM-CA-Ng.loop1.water4.frame257 

   0  1 
C         46.53181       10.96639        8.84960
C         45.08736       10.57600        8.75124
O         44.23599       11.34296        9.17624
H         47.19132       10.19166        8.40351
H         46.69610       11.92252        8.31201
H         46.80866       11.09008        9.91740
N         44.74099        9.37050        8.22616
C         43.36849        8.90121        8.12092
C         43.13256        7.74882        9.08177
O         42.07169        7.16619        9.00497
C         43.08340        8.43038        6.67113
C         43.22602        9.52224        5.64734
O         42.26815        9.84878        4.96375
O         44.41704       10.11668        5.44598
H         45.48721        8.72786        7.91663
H         42.63598        9.69825        8.37567
H         42.04220        8.04600        6.61402
H         43.76597        7.59512        6.40067
N         44.04021        7.35005       10.01741
C         43.87558        6.12536       10.79879
C         43.72908        6.39299       12.28318
O         44.43085        7.26990       12.76889
C         45.11520        5.24269       10.58831
C         45.25260        4.77804        9.12979
C         46.45872        3.85033        8.92352
C         46.32078        2.51004        9.67076
N         47.47209        1.64891        9.41291
H         44.90890        7.88835       10.15294
H         42.99662        5.56673       10.45455
H         45.02339        4.36564       11.25097
H         46.03111        5.79513       10.89507
H         45.38409        5.67072        8.48000
H         44.32838        4.25082        8.80633
H         47.38560        4.37377        9.24446
H         46.53899        3.63526        7.83598
H         45.39288        1.99569        9.33408
H         46.25138        2.67004       10.76622
H         47.55437        1.45266        8.38937
H         48.34495        2.11035        9.75851
H         47.34229        0.74590        9.92404
N         42.95203        5.63759       13.13282
C         42.04932        4.50944       12.83364
C         42.74672        3.34340       12.14408
O         42.76548        3.29952       10.92303
C         40.74256        4.95113       12.13412
C         39.97737        5.92706       12.98706
O         40.42723        6.23644       14.22075
O         38.97109        6.46201       12.55208
H         43.01915        5.88201       14.13378
H         41.68723        4.12024       13.80678
H         40.09054        4.07066       11.94217
H         40.96569        5.43259       11.16489
N         43.31932        2.31370       12.83188
C         43.25870        2.17049       14.28230
C         43.94971        0.91061       14.77937
O         44.60819        0.23863       13.99815
H         43.78074        1.58361       12.26845
H         42.18609        2.08369       14.55796
H         43.70743        3.05660       14.78232
N         43.81773        0.46089       16.06143
C         43.02948        1.10623       17.10657
C         41.75335        0.31937       17.34340
O         41.82296       -0.86568       17.63640
C         43.85505        1.29387       18.40622
C         44.40486        0.05529       19.08444
O         44.24559       -1.06420       18.62681
O         45.09631        0.19605       20.23077
H         44.25940       -0.44378       16.28137
H         42.73515        2.12990       16.79638
H         43.20761        1.81594       19.14451
H         44.71614        1.95781       18.17974
N         40.53607        0.92533       17.21816
C         39.27899        0.22337       17.42490
C         38.38687        0.22127       16.20241
O         37.33994       -0.40588       16.28013
H         40.49406        1.93007       16.98887
H         38.73337        0.69796       18.26797
H         39.45775       -0.83837       17.69924
N         38.70600        0.88388       15.04824
C         37.86794        0.84023       13.85550
C         38.68938        0.30826       12.69746
O         39.65390        0.94758       12.29805
C         37.29500        2.23631       13.52659
C         36.40467        2.75667       14.66016
O         36.52572        2.15010       12.35405
H         39.57052        1.44060       14.99394
H         36.99894        0.16422       14.01425
H         38.14625        2.94257       13.37679
H         36.54774        3.04443       11.92478
H         36.98237        2.85819       15.60233
H         35.99821        3.75452       14.39104
H         35.55266        2.06306       14.83065
N         38.36045       -0.88018       12.11683
C         39.10601       -1.45579       10.99687
C         38.94336       -0.65856        9.69943
O         39.61442       -0.99531        8.73349
C         38.72399       -2.95301       10.76678
C         37.23267       -3.12610       10.36039
C         39.09364       -3.78608       12.01151
C         36.85822       -4.56624       10.00888
H         37.57817       -1.40699       12.52742
H         40.18687       -1.43681       11.26551
H         39.35383       -3.33167        9.93059
H         37.03024       -2.50845        9.45964
H         36.55345       -2.78420       11.16764
H         38.48864       -3.49384       12.89457
H         38.94941       -4.86925       11.82871
H         40.16782       -3.64446       12.25785
H         35.79775       -4.59924        9.68116
H         37.49833       -4.94091        9.18281
H         36.95532       -5.23514       10.88775
N         38.07550        0.39096        9.59317
C         37.88868        1.17788        8.37837
C         38.31941        2.60575        8.63945
O         37.89076        3.19548        9.62188
C         36.42943        1.08899        7.86438
C         35.36557        1.60613        8.83949
O         36.12822       -0.24545        7.54674
H         37.51318        0.66148       10.40840
H         38.51635        0.78035        7.55037
H         36.34421        1.71713        6.94466
H         36.50154       -0.41948        6.64273
H         34.36415        1.51763        8.36773
H         35.35609        1.01195        9.77580
H         35.52535        2.67604        9.08090
N         39.19826        3.22054        7.79966
C         39.73288        4.55216        8.06058
C         38.64615        5.61993        8.20464
O         37.52729        5.42304        7.75141
C         40.78207        4.95069        6.98729
C         40.19822        5.09370        5.57555
O         41.81652        3.99881        6.97860
H         39.53293        2.69897        6.97579
H         40.25621        4.48645        9.04000
H         41.19152        5.93620        7.26071
H         42.63007        4.45096        6.63166
H         39.77287        4.13753        5.21013
H         39.40780        5.87177        5.56035
H         41.00139        5.40740        4.87411
N         38.92957        6.76665        8.89260
C         37.99509        7.87770        9.10124
C         38.46642        8.96857       10.10038
O         37.71111        9.91349       10.28423
C         37.65658        8.52897        7.73782
C         38.86669        9.23552        7.09192
C         38.54044        9.81260        5.70508
C         38.37463        8.71860        4.63501
N         38.04616        9.30132        3.33543
H         39.85670        6.79997        9.29381
H         37.05854        7.45621        9.52883
H         36.84326        9.27524        7.87459
H         37.25969        7.74875        7.06459
H         39.73219        8.54583        7.00514
H         39.16453       10.07896        7.75210
H         39.38552       10.46309        5.39075
H         37.62675       10.44309        5.77170
H         37.57123        8.00575        4.91082
H         39.32940        8.15235        4.55174
H         37.98470        8.53619        2.62514
H         37.12095        9.78638        3.38890
H         38.78608        9.97912        3.04147
N         39.64916        8.92705       10.79439
C         40.08202        9.97041       11.72490
C         40.34488       11.27251       11.00118
O         41.16068       11.30011       10.08977
C         41.35909        9.51137       12.46755
C         41.96365       10.53654       13.44940
C         41.00135       11.16513       14.43574
O         40.90469       12.38137       14.46999
O         40.26675       10.43707       15.30233
H         40.27761        8.12604       10.70760
H         39.29563       10.11253       12.49689
H         42.15295        9.24489       11.73404
H         41.11611        8.58286       13.01094
H         42.42713       11.35468       12.85486
H         42.78231       10.03178       14.00647
N         39.71525       12.41185       11.39748
C         39.98847       13.69386       10.78833
H         41.06527       13.94399       10.90515
H         39.72594       13.66781        9.71057
H         39.38911       14.48428       11.28840
H         39.04206       12.37772       12.17817
Ca        40.04752        8.21210       15.18167
O         39.54492        6.96568       18.84180
H         39.08699        7.43405       19.58446
H         39.86799        6.12057       19.24367
O         37.20513        9.01645       14.40543
H         37.50991        9.94134       14.22754
H         37.67539        8.46741       13.72945
O         37.75809        6.05706       16.25099
H         37.18958        5.48373       16.82419
H         37.23545        6.17178       15.41790
O         38.40293        9.57701       17.56689
H         38.27898        9.72667       18.53748
H         38.31003       10.47666       17.16446

Ca 1.0



