%chk=apoCaM-CA-Ng.loop4.water4.frame809.chk
%nprocshared=20
%mem=10GB
%nosave
#b3lyp/svp scf=(tight,noincore,xqc) Test 
#IOP(5/87=12) Density=Current Pop=(MK,readradii) iop(6/33=2) iop(6/42=6)

apoCaM-CA-Ng.loop4.water4.frame809 

   -3  1 
C        -18.54259      102.03301       66.23645
C        -19.71231      102.90106       66.60708
O        -20.56581      102.46125       67.36284
H        -17.98448      101.74851       67.15369
H        -18.89209      101.11970       65.72727
H        -17.84058      102.56119       65.55658
N        -19.78886      104.17468       66.13225
C        -20.80346      105.15361       66.51209
C        -20.74803      105.40336       68.00290
O        -21.76070      105.35431       68.68859
C        -22.21209      104.79589       65.99278
C        -22.17323      104.60161       64.50637
O        -22.53729      103.41860       63.99773
O        -21.74045      105.47352       63.76972
H        -19.04148      104.50618       65.50288
H        -20.52214      106.11741       66.03108
H        -22.91829      105.61882       66.23372
H        -22.58104      103.86610       66.47935
N        -19.54290      105.68860       68.56394
C        -19.36866      106.03460       69.97131
C        -20.03771      107.38827       70.24372
O        -20.30055      108.09196       69.27679
C        -17.83654      106.10251       70.31473
C        -17.10176      107.21823       69.50358
C        -17.17246      104.72478       70.12526
C        -15.62970      107.40298       69.87043
H        -18.72349      105.65296       67.94353
H        -19.84961      105.23436       70.57476
H        -17.73664      106.33603       71.38460
H        -17.59929      108.19184       69.69433
H        -17.14512      107.02462       68.41288
H        -17.20076      104.38818       69.06822
H        -16.11529      104.73831       70.45797
H        -17.68620      103.97579       70.75708
H        -15.03353      106.50170       69.62305
H        -15.21252      108.24613       69.27850
H        -15.52659      107.64027       70.94930
N        -20.29416      107.90240       71.48414
C        -20.20053      107.21416       72.76943
C        -21.47914      107.40184       73.60390
O        -21.46732      107.00145       74.75889
C        -19.00045      107.77169       73.58451
C        -19.06672      109.22912       73.97303
O        -18.05462      109.75812       74.68538
O        -20.01270      109.93659       73.66620
H        -20.60583      108.88489       71.50535
H        -20.01715      106.12899       72.62637
H        -18.06373      107.63293       73.01960
H        -18.90609      107.17774       74.52049
N        -22.57158      108.08705       73.14091
C        -23.62392      108.56969       74.02396
C        -24.43006      107.51844       74.74254
O        -25.04282      107.86830       75.74274
H        -22.61958      108.40093       72.16259
H        -24.33129      109.22070       73.46502
H        -23.13952      109.21292       74.79066
N        -24.55825      106.24404       74.28047
C        -25.39218      105.27435       74.98340
C        -24.83675      104.89776       76.34931
O        -25.61781      104.46446       77.18370
C        -25.67662      104.01213       74.13590
C        -24.46532      103.23633       73.67604
O        -23.21217      103.64853       73.95012
O        -24.62486      102.21680       73.02485
H        -24.11128      105.98659       73.38859
H        -26.38700      105.74930       75.15000
H        -26.24071      104.31846       73.22914
H        -26.33105      103.33252       74.72695
N        -23.50552      104.98104       76.64653
C        -22.96230      104.51749       77.91526
C        -23.10410      103.01245       78.10270
O        -22.81738      102.53741       79.19187
H        -22.84921      105.36051       75.95430
H        -23.48812      105.05107       78.73698
H        -21.88140      104.76907       77.98156
N        -23.52561      102.19820       77.08739
C        -23.77534      100.76809       77.20383
C        -22.52941       99.96502       77.53993
O        -22.65757       98.86274       78.05308
C        -24.99858      100.50546       78.11293
C        -26.27095      101.06532       77.44433
C        -27.48427      100.96772       78.32435
N        -27.55903      101.68218       79.47113
O        -28.42483      100.26655       77.98312
H        -23.70241      102.59783       76.16227
H        -24.05670      100.38824       76.19525
H        -24.82835      100.96205       79.11030
H        -25.15450       99.41417       78.25337
H        -26.44450      100.50333       76.49938
H        -26.14387      102.12773       77.17777
H        -26.78613      102.30110       79.75725
H        -28.40126      101.63499       80.06305
N        -21.30517      100.38161       77.10070
C        -20.10813       99.54023       77.12078
C        -19.56775       99.32399       75.70457
O        -18.56844       98.62797       75.57158
C        -19.00375      100.15086       78.02867
C        -18.48385      101.50532       77.51593
C        -19.49143      100.28385       79.47664
H        -21.22430      101.31753       76.67909
H        -20.35078       98.53408       77.52872
H        -18.14259       99.44463       78.03645
H        -17.65744      101.86291       78.16604
H        -18.07825      101.40617       76.48673
H        -19.28534      102.27204       77.51398
H        -20.34042      100.99616       79.54539
H        -19.81851       99.29506       79.86319
H        -18.66659      100.65133       80.12390
N        -20.14440       99.90399       74.60790
C        -19.59673       99.82702       73.25966
C        -20.58936       99.16724       72.32131
O        -21.77257       99.10701       72.63955
C        -19.28204      101.26907       72.80986
C        -18.76643      101.37509       71.40061
N        -19.45638      102.07905       70.47237
O        -17.71539      100.83242       71.09480
H        -21.00047      100.46679       74.71142
H        -18.66320       99.22153       73.25248
H        -18.52836      101.70881       73.49924
H        -20.21148      101.87417       72.90304
H        -20.34187      102.55034       70.71148
H        -19.09910      102.16275       69.51110
N        -20.16256       98.59042       71.15960
C        -21.08637       97.90959       70.25590
C        -20.35472       96.99146       69.27502
O        -19.14323       97.11072       69.13096
C        -21.89161       98.97924       69.47306
C        -23.19578       98.46651       68.92978
C        -23.35968       98.15762       67.57016
C        -24.28556       98.33087       69.80497
C        -24.59677       97.69948       67.10090
C        -25.52290       97.89417       69.33157
C        -25.68352       97.57076       67.98148
O        -26.88424       97.14125       67.54441
H        -19.14877       98.58547       70.96931
H        -21.73555       97.26765       70.89286
H        -21.24307       99.39717       68.66961
H        -22.14948       99.84841       70.11722
H        -22.53103       98.25707       66.87971
H        -24.17992       98.58575       70.85291
H        -24.71157       97.44928       66.05402
H        -26.35744       97.81011       70.01658
H        -27.04099       96.90091       66.62060
N        -21.03061       96.04084       68.56463
C        -20.39649       95.20268       67.54945
C        -21.12255       95.39635       66.22835
O        -22.28342       95.01718       66.14481
C        -20.41845       93.71172       67.92638
C        -19.55503       93.40668       69.15438
C        -19.53497       91.92836       69.41966
O        -20.67921       91.27457       69.69733
O        -18.48266       91.31073       69.37738
H        -22.04055       95.91617       68.73650
H        -19.33045       95.47305       67.44596
H        -19.99983       93.13518       67.06986
H        -21.46521       93.37635       68.09817
H        -19.95067       93.93560       70.04673
H        -18.51562       93.75782       68.96491
N        -20.55600       96.00303       65.14635
C        -19.22793       96.61150       65.15773
C        -18.13137       95.57068       65.13356
O        -18.38593       94.41625       64.81739
C        -19.07802       97.60969       63.99300
C        -20.09392       98.74084       64.18759
C        -20.09440       99.79735       63.13412
O        -20.97840      100.78599       63.30547
O        -19.35903       99.77098       62.16026
H        -21.14756       96.11560       64.30791
H        -19.12629       97.20521       66.09414
H        -19.24705       97.09477       63.02152
H        -18.05653       98.04942       63.99389
H        -19.89505       99.22646       65.16444
H        -21.12676       98.33882       64.22486
N        -16.87403       95.91830       65.52020
C        -15.78731       94.96669       65.56318
H        -14.87500       95.45611       65.96616
H        -16.05273       94.11564       66.22673
H        -15.57330       94.59221       64.54078
H        -16.68905       96.88542       65.82811
Ca       -21.54836      102.60802       62.16217
O        -22.24929      104.82086       60.24786
H        -23.22393      104.83153       60.07447
H        -21.84120      104.64025       59.36408
O        -24.64403      102.97615       61.76842
H        -25.00539      102.82460       62.67774
H        -25.44193      103.14416       61.20744
O        -22.75557      101.47282       59.52984
H        -22.44016      100.57337       59.26203
H        -22.41706      102.07616       58.82151
O        -23.65979      100.19562       62.70236
H        -23.60989      100.04790       63.68044
H        -24.06092       99.36545       62.34354

Ca 1.0



