%chk=apoCaM-CA-Ng.loop3.water6.frame379.chk
%nprocshared=20
%mem=10GB
%nosave
#b3lyp/svp scf=(tight,noincore,xqc) Test 
#IOP(5/87=12) Density=Current Pop=(MK,readradii) iop(6/33=2) iop(6/42=6)

apoCaM-CA-Ng.loop3.water6.frame379 

   0  1 
C         45.39576      110.85161       -2.42723
C         46.72539      110.50461       -3.02968
O         47.62102      110.09021       -2.31075
H         44.60103      110.23140       -2.89256
H         45.39516      110.67441       -1.33115
H         45.17437      111.92397       -2.61614
N         46.91763      110.67007       -4.36813
C         48.14152      110.37963       -5.11620
C         49.30052      111.34398       -4.83136
O         50.23426      111.36068       -5.62104
C         48.54472      108.89360       -4.96984
C         49.60840      108.49009       -5.95215
O         50.80147      108.04630       -5.51551
O         49.39207      108.55549       -7.15192
H         46.11341      111.00756       -4.92064
H         47.87355      110.55482       -6.18330
H         47.65635      108.25055       -5.15393
H         48.90289      108.69760       -3.93662
N         49.32337      112.17546       -3.74930
C         50.34611      113.18859       -3.51109
C         51.34276      112.73394       -2.44309
O         52.20530      113.51670       -2.06915
C         49.63332      114.48973       -3.06212
C         48.50315      114.90509       -4.02962
C         47.73521      116.16815       -3.60508
C         47.05435      116.03739       -2.22952
N         46.19550      117.19014       -1.95898
H         48.58542      112.12479       -3.04226
H         50.91809      113.39462       -4.44236
H         50.37347      115.31342       -2.96636
H         49.18861      114.29811       -2.06230
H         47.75591      114.08580       -4.10958
H         48.93338      115.07365       -5.03992
H         46.94780      116.33901       -4.37208
H         48.41519      117.04641       -3.60210
H         47.82612      115.96970       -1.43258
H         46.43393      115.11393       -2.19966
H         45.41591      117.22328       -2.65586
H         45.78446      117.09488       -1.00203
H         46.74885      118.07613       -2.00527
N         51.28857      111.47498       -1.91969
C         52.13851      110.96491       -0.85020
C         52.93682      109.78195       -1.36706
O         52.36861      108.96083       -2.06832
C         51.20481      110.54899        0.30033
C         51.92954      109.96597        1.47548
O         52.87201      110.67186        2.12363
O         51.64506      108.84722        1.86827
H         50.58212      110.81511       -2.27634
H         52.83720      111.74157       -0.46580
H         50.46235      109.80694       -0.07176
H         50.65131      111.44804        0.64641
N         54.26038      109.62637       -1.06301
C         55.07809      108.54328       -1.60078
C         54.62580      107.13745       -1.23112
O         55.15196      106.20154       -1.81652
H         54.72035      110.32492       -0.46025
H         56.13478      108.66468       -1.27474
H         55.05670      108.62944       -2.70791
N         53.67623      106.89233       -0.28303
C         53.16864      105.54971        0.00612
C         52.18949      105.05745       -1.05620
O         51.67354      103.96462       -0.87828
C         52.45371      105.53174        1.37863
C         53.42261      105.73713        2.51334
N         54.38258      104.81660        2.77065
O         53.32698      106.72547        3.22148
H         53.31437      107.68081        0.26905
H         54.01221      104.82730        0.06138
H         51.96600      104.54954        1.56067
H         51.65701      106.30541        1.38538
H         54.46276      103.96235        2.19976
H         55.03611      104.94329        3.55651
N         51.86705      105.77184       -2.17583
C         50.86968      105.31045       -3.12757
C         49.46726      105.32016       -2.54685
O         48.60401      104.66365       -3.10936
H         52.33895      106.65377       -2.38480
H         51.14487      104.28380       -3.45207
H         50.86491      105.95398       -4.03047
N         49.15787      106.07046       -1.44801
C         47.85355      106.06906       -0.79583
C         48.04978      105.68373        0.65036
O         48.89198      106.26828        1.31887
C         47.18570      107.44904       -0.90322
C         45.84995      107.48558       -0.18397
C         44.81126      106.60688       -0.54574
C         45.63707      108.39273        0.86828
C         43.59402      106.62597        0.14155
C         44.41595      108.41374        1.55002
C         43.39173      107.52602        1.19132
O         42.21429      107.52597        1.84868
H         49.88227      106.67909       -1.03791
H         47.17176      105.34006       -1.28248
H         47.01749      107.67323       -1.97771
H         47.86989      108.21860       -0.48256
H         44.94196      105.89786       -1.35242
H         46.41686      109.08180        1.16662
H         42.80815      105.93584       -0.13950
H         44.26928      109.11566        2.36117
H         42.03662      108.12538        2.58757
N         47.28590      104.70719        1.20820
C         47.53791      104.20669        2.54949
C         48.76089      103.31677        2.44875
O         49.75201      103.57809        3.11560
C         46.29550      103.47037        3.12481
C         45.00787      104.34682        3.07531
C         46.56764      102.99793        4.56568
C         45.09199      105.68900        3.81321
H         46.54343      104.27026        0.64173
H         47.74196      105.05920        3.23589
H         46.08960      102.56847        2.50770
H         44.16259      103.76390        3.50083
H         44.74533      104.56426        2.01912
H         45.68272      102.46029        4.96685
H         47.43012      102.30227        4.59641
H         46.79932      103.85337        5.23413
H         45.86613      106.34425        3.36298
H         44.11816      106.21472        3.72602
H         45.30479      105.54892        4.89138
N         48.78295      102.30265        1.53246
C         49.98762      101.53913        1.22709
C         50.39303      100.59498        2.34204
O         51.52965      100.14444        2.33491
C         49.80185      100.72360       -0.06685
O         49.33143      101.52179       -1.12112
H         47.94231      102.15228        0.95363
H         50.80476      102.27555        1.05696
H         49.04643       99.92925        0.11289
H         50.75327      100.22794       -0.36265
H         49.99521      102.24044       -1.26550
N         49.51074      100.22789        3.31674
C         49.83592       99.35989        4.44198
C         50.93985       99.99157        5.26926
O         51.91943       99.34034        5.60684
C         50.16053       97.93209        3.97173
H         48.54996      100.59735        3.28710
H         48.93009       99.30033        5.08582
H         50.32586       97.26697        4.84526
H         49.31167       97.52811        3.37969
H         51.07145       97.90794        3.33844
N         50.84936      101.31556        5.56700
C         51.86037      102.07559        6.28120
C         51.18254      102.89855        7.35027
O         50.23520      103.60229        7.02607
C         52.57547      103.00109        5.29487
H         50.03960      101.83921        5.19935
H         52.63790      101.41250        6.72167
H         53.35578      103.58910        5.82393
H         53.07114      102.39363        4.50682
H         51.86429      103.70092        4.80865
N         51.61514      102.87570        8.64454
C         50.99491      103.65359        9.71634
C         49.59202      103.15738       10.05201
O         48.92431      103.79952       10.85189
C         51.01338      105.17557        9.40805
C         52.44407      105.69548        9.18666
C         52.50590      107.18247        8.95992
O         51.49485      107.86805        8.94174
O         53.70424      107.76841        8.78445
H         52.43515      102.29847        8.88479
H         51.59031      103.51589       10.64590
H         50.57945      105.71728       10.27695
H         50.38862      105.42372        8.52584
H         52.89609      105.19138        8.30551
H         53.05481      105.46149       10.08446
N         49.09617      101.99070        9.54507
C         47.78399      101.49682        9.90054
H         47.00519      102.20928        9.55739
H         47.60739      100.51169        9.41804
H         47.71236      101.36615       11.00182
H         49.66404      101.40507        8.91732
Ca        53.83611      109.67645        3.90167
O         56.18504      107.82284        4.58127
H         56.08357      106.84108        4.65158
H         57.06835      107.95132        4.15318
O         55.85876      109.29510        1.80105
H         56.24810      110.17700        1.57524
H         56.48901      108.63609        1.41681
O         56.02275      111.49147        4.32915
H         56.24640      111.71836        5.26624
H         56.82708      111.74060        3.80940
O         51.62876      111.35212        5.00227
H         51.13839      110.71393        5.57863
H         51.80089      112.13348        5.58513
O         51.97778      107.74348        5.47799
H         51.50609      106.87321        5.45876
H         51.56141      108.23949        6.22549
O         54.61359      109.96058        6.86893
H         54.26452      109.08652        6.56198
H         53.82939      110.56412        6.83869

Ca 1.0



