%chk=apoCaM-CA-Ng.loop4.water4.frame210.chk
%nprocshared=20
%mem=10GB
%nosave
#b3lyp/svp scf=(tight,noincore,xqc) Test 
#IOP(5/87=12) Density=Current Pop=(MK,readradii) iop(6/33=2) iop(6/42=6)

apoCaM-CA-Ng.loop4.water4.frame210 

   -3  1 
C         40.33373       51.66153       67.38968
C         41.35163       52.36096       66.53903
O         41.97261       51.69684       65.72442
H         39.55080       51.21802       66.73755
H         40.82560       50.84740       67.96270
H         39.84961       52.35980       68.10257
N         41.55352       53.70935       66.64551
C         42.49803       54.45965       65.82146
C         42.29227       54.18680       64.33987
O         43.16729       53.66171       63.67368
C         43.94725       54.42606       66.37007
C         44.49457       53.09274       66.77547
O         44.65767       52.21022       65.95774
O         44.85175       52.88307       68.05813
H         40.96978       54.24447       67.30526
H         42.26024       55.54341       65.91707
H         43.95633       55.04949       67.29153
H         44.62997       54.91836       65.64219
N         41.12280       54.61239       63.78119
C         40.71789       54.61402       62.37588
C         41.61651       55.51494       61.53015
O         41.17123       56.59444       61.16566
C         40.50768       53.20476       61.75611
C         39.81842       53.30056       60.36466
C         39.70789       52.27600       62.68664
C         38.40103       53.90592       60.36702
H         40.44194       55.04304       64.42733
H         39.71865       55.09716       62.39714
H         41.49539       52.71691       61.61030
H         39.75909       52.27770       59.95065
H         40.44510       53.89837       59.66991
H         39.56182       51.28698       62.20133
H         40.26373       52.10491       63.63015
H         38.71699       52.70123       62.94317
H         37.98498       53.88325       59.33840
H         37.71325       53.33317       61.02157
H         38.39929       54.96582       60.68902
N         42.87705       55.14157       61.16051
C         43.78642       56.01447       60.42795
C         43.69158       55.84470       58.91450
O         43.54023       56.86486       58.25690
C         45.24835       55.85105       60.90919
C         45.46120       56.22565       62.35339
O         46.58611       56.17242       62.82438
O         44.43967       56.63191       63.13260
H         43.22532       54.21200       61.42106
H         43.53809       57.07921       60.64793
H         45.89354       56.52185       60.29972
H         45.60590       54.81451       60.76286
N         43.81080       54.66133       58.24012
C         43.82483       53.34155       58.85148
C         44.02647       52.24469       57.81366
O         43.42346       52.34736       56.75455
H         43.82629       54.71837       57.20949
H         42.83391       53.17802       59.32229
H         44.57941       53.28753       59.63456
N         44.76322       51.10672       58.02459
C         45.41573       50.69513       59.26658
C         44.38743       50.71296       60.39913
O         44.57037       51.45128       61.35576
C         46.72370       51.49592       59.49711
C         47.54164       50.94358       60.63266
O         47.90119       51.73918       61.65613
O         47.92017       49.78278       60.61199
H         44.78292       50.41701       57.25640
H         45.76410       49.64634       59.13850
H         46.54731       52.57162       59.66978
H         47.34461       51.41006       58.57911
N         43.22537       49.98742       60.33848
C         42.91426       49.01013       59.30341
C         41.89889       49.52360       58.31233
O         41.34987       50.60210       58.49016
H         42.51399       50.13949       61.06625
H         42.58085       48.05685       59.76652
H         43.81641       48.76101       58.71863
N         41.69686       48.82132       57.16085
C         40.92350       49.34698       56.03806
C         39.41983       49.36561       56.26653
O         38.72342       49.93171       55.43461
C         41.26187       48.57647       54.74169
C         40.76751       47.11802       54.73220
C         41.19069       46.43258       53.45947
N         40.27193       45.98437       52.57339
O         42.38040       46.28160       53.22418
H         42.24096       47.95462       57.03337
H         41.26702       50.39359       55.87445
H         42.36609       48.60176       54.60422
H         40.80311       49.10517       53.87699
H         39.65973       47.11237       54.81445
H         41.17731       46.54583       55.59058
H         39.26568       46.11095       52.74524
H         40.56815       45.51823       51.70343
N         38.84115       48.74624       57.33419
C         37.39819       48.72522       57.56605
C         36.83402       47.31286       57.54412
O         35.64587       47.17445       57.79789
C         37.05186       49.44592       58.89691
C         37.42326       50.92566       58.79755
C         37.71660       48.80625       60.12872
H         39.44120       48.25225       58.00962
H         36.85583       49.27031       56.76130
H         35.94987       49.40192       59.04646
H         37.13732       51.44667       59.73243
H         38.51019       51.03853       58.62022
H         36.88202       51.40549       57.95424
H         37.39078       49.33380       61.05058
H         37.42093       47.74035       60.22255
H         38.82242       48.87219       60.07511
N         37.59415       46.22498       57.21294
C         37.04944       44.86975       57.18066
C         37.79732       43.91810       58.10461
O         37.31086       42.80777       58.28318
C         37.10245       44.32783       55.73813
C         36.37457       45.22040       54.76248
N         35.04700       45.45044       54.88137
O         36.99430       45.73958       53.84733
H         38.57279       46.35680       56.92744
H         35.99181       44.87510       57.52098
H         36.65470       43.31126       55.69369
H         38.16858       44.24894       55.42749
H         34.50057       45.01909       55.63984
H         34.56305       46.06218       54.20707
N         39.00320       44.23023       58.66885
C         39.78685       43.27034       59.44083
C         40.49102       43.93486       60.61627
O         40.56212       45.15404       60.67394
C         40.86667       42.67386       58.51104
C         40.27988       41.87530       57.37065
C         39.65493       40.64263       57.62295
C         40.36823       42.34017       56.04668
C         39.13802       39.88248       56.56927
C         39.83872       41.58397       54.99542
C         39.22891       40.35112       55.25076
O         38.74027       39.62539       54.22444
H         39.45669       45.12401       58.43648
H         39.13153       42.46341       59.83839
H         41.55892       42.00637       59.06669
H         41.47005       43.52119       58.11321
H         39.58355       40.26276       58.63436
H         40.83996       43.28973       55.82612
H         38.67176       38.92779       56.77843
H         39.90829       41.95375       53.97989
H         38.32723       38.75980       54.35614
N         41.09321       43.15642       61.56358
C         41.97509       43.61575       62.64038
C         41.37388       44.56187       63.67576
O         42.10216       44.86083       64.61384
C         43.23487       44.30002       62.05947
C         44.05142       43.39524       61.13290
C         45.23650       44.14913       60.59985
O         45.07200       45.14774       59.91608
O         46.48598       43.73210       60.87796
H         40.97874       42.13356       61.47899
H         42.30397       42.71123       63.20204
H         43.90617       44.60598       62.89353
H         42.93251       45.22012       61.51532
H         43.43598       43.05076       60.27703
H         44.39862       42.50593       61.70359
N         40.12165       45.10325       63.60273
C         39.67216       46.12964       64.54593
C         38.48657       45.67682       65.38100
O         38.07744       46.43876       66.24719
C         39.29196       47.42090       63.78493
C         40.35844       47.98021       62.82820
C         41.62644       48.42652       63.48896
O         42.37058       47.62224       64.02300
O         41.98274       49.72083       63.41950
H         39.48008       44.83170       62.84693
H         40.47931       46.38065       65.26711
H         39.02254       48.21573       64.51591
H         38.39337       47.20503       63.16658
H         39.91205       48.86104       62.32153
H         40.60723       47.24005       62.04410
N         37.87553       44.47168       65.18913
C         36.73290       44.03201       65.96418
H         35.87082       43.87174       65.28365
H         36.97868       43.07575       66.46984
H         36.43176       44.76939       66.73799
H         38.20908       43.82761       64.45934
Ca        44.02977       50.38376       64.06020
O         47.03348       50.44241       65.48874
H         46.86198       49.54709       65.87351
H         47.09750       51.04226       66.27403
O         45.57703       48.29190       62.74185
H         46.16215       47.86550       63.41676
H         46.02270       49.15241       62.53925
O         44.33045       48.67237       66.69950
H         45.03458       48.05084       67.01143
H         44.09741       48.33814       65.79858
O         46.38605       53.05606       63.84401
H         45.76483       53.65514       63.36306
H         46.15567       52.15452       63.50846

Ca 1.0



