%chk=apoCaM-CA-Ng.loop3.water3.frame679.chk
%nprocshared=20
%mem=10GB
%nosave
#b3lyp/svp scf=(tight,noincore,xqc) Test 
#IOP(5/87=12) Density=Current Pop=(MK,readradii) iop(6/33=2) iop(6/42=6)

apoCaM-CA-Ng.loop3.water3.frame679 

   0  1 
C         67.20639       72.80376       87.94238
C         66.10980       73.43249       88.74782
O         64.95286       73.16038       88.46229
H         68.20757       73.11062       88.30909
H         67.12536       71.69837       88.02057
H         67.10597       73.09924       86.87730
N         66.39684       74.27306       89.78460
C         65.37251       74.85452       90.64154
C         65.45453       76.37525       90.57784
O         66.49862       76.92968       90.89440
C         65.58954       74.35145       92.08292
C         64.39341       74.52852       92.97843
O         64.49990       74.29228       94.17091
O         63.18657       74.86430       92.48078
H         67.38416       74.48285       89.99833
H         64.37194       74.51171       90.30418
H         66.48078       74.85869       92.51180
H         65.81067       73.27059       92.08130
N         64.39049       77.11362       90.15834
C         64.41586       78.57313       90.04038
C         64.63663       79.24261       91.38761
O         65.52943       80.07244       91.49053
C         63.10174       79.09902       89.42078
C         62.92483       78.62783       87.96587
C         61.60474       79.13179       87.37202
C         61.43125       78.63739       85.92864
N         60.14406       79.06158       85.37952
H         63.52941       76.60979       89.89831
H         65.23856       78.87980       89.35397
H         63.12541       80.21247       89.41334
H         62.23833       78.77218       90.04086
H         62.92628       77.51909       87.92134
H         63.77364       79.00538       87.35279
H         61.58324       80.24397       87.38709
H         60.76383       78.74876       87.99023
H         61.48302       77.52585       85.90870
H         62.25428       79.03761       85.29496
H         59.36341       78.66647       85.95301
H         60.08151       80.10533       85.36830
H         60.05550       78.70453       84.40068
N         63.86205       78.92565       92.46414
C         63.97103       79.59486       93.76478
C         64.78607       78.78704       94.77387
O         65.00118       79.29146       95.86760
C         62.55071       79.97479       94.27913
C         61.67627       78.77278       94.53669
O         62.24528       77.56087       94.51760
O         60.47784       78.89285       94.73074
H         63.17920       78.16296       92.34917
H         64.53272       80.54674       93.63940
H         62.07231       80.58879       93.48516
H         62.60583       80.58779       95.20397
N         65.32568       77.56498       94.47137
C         66.24114       76.86709       95.36635
C         65.64614       76.43333       96.69238
O         66.42159       76.06527       97.56309
H         65.16221       77.14736       93.54568
H         67.08583       77.55939       95.57565
H         66.66583       75.97118       94.86514
N         64.30447       76.44805       96.93396
C         63.72081       76.19148       98.24294
C         62.83188       74.96098       98.23670
O         61.91731       74.86430       97.43060
C         62.95319       77.44826       98.69238
C         62.35470       77.27279      100.06868
N         62.86299       77.93439      101.13307
O         61.40925       76.51428      100.22644
H         63.66227       76.69245       96.17502
H         64.51926       76.03754       99.00155
H         62.15177       77.72379       97.97130
H         63.68647       78.28448       98.71105
H         63.67606       78.55830      101.02958
H         62.45945       77.79781      102.07154
N         63.01061       74.01631       99.20427
C         62.14616       72.86929       99.39631
C         62.27774       71.86285       98.28579
O         63.37645       71.38669       98.03849
H         63.75738       74.15328       99.90205
H         61.09550       73.21249       99.52689
H         62.44287       72.35635      100.33667
N         61.17210       71.44227       97.61438
C         61.20012       70.40188       96.58784
C         61.95940       70.84569       95.34799
O         62.45120       71.96470       95.30646
C         59.74478       70.03189       96.19549
C         58.97305       69.46466       97.36207
C         59.39057       68.26813       97.97026
C         57.82633       70.11581       97.84571
C         58.67847       67.73678       99.04770
C         57.11447       69.58154       98.92438
C         57.53727       68.39288       99.52946
O         56.84089       67.89070      100.56877
H         60.26185       71.84649       97.88597
H         61.70082       69.49791       96.99655
H         59.72338       69.26265       95.39742
H         59.24293       70.94021       95.79302
H         60.26631       67.74349       97.60961
H         57.48324       71.03663       97.39053
H         59.01464       66.81486       99.50528
H         56.23276       70.09236       99.28996
H         57.10177       67.07172      101.01394
N         62.04613       69.99965       94.27548
C         62.58484       70.33406       92.95936
C         61.77601       71.46919       92.34802
O         61.64676       72.52008       92.95528
C         64.11249       70.62005       92.95456
C         64.64861       70.86461       91.50836
C         64.89363       69.47688       93.62488
C         64.49225       69.70001       90.51812
H         61.64864       69.05352       94.36999
H         62.44654       69.43126       92.32870
H         64.31232       71.54096       93.54257
H         65.73358       71.09323       91.56323
H         64.13845       71.75167       91.07468
H         64.58831       69.36701       94.68605
H         64.71433       68.50932       93.11189
H         65.98288       69.69643       93.60664
H         63.43416       69.42880       90.34998
H         64.90931       70.00146       89.53399
H         65.04242       68.80154       90.86120
N         61.23338       71.33481       91.10998
C         60.43764       72.38058       90.47990
C         59.17109       71.84048       89.82346
O         58.40647       72.64798       89.31130
C         61.31136       73.10222       89.44883
O         61.73822       72.20200       88.46364
H         61.47339       70.49682       90.56599
H         60.12635       73.13652       91.23533
H         62.19288       73.52412       89.98247
H         60.73920       73.93395       88.98232
H         62.38692       72.69804       87.90160
N         58.89638       70.50336       89.74024
C         57.75133       69.98879       89.00051
C         56.44182       70.30487       89.71162
O         56.48016       70.60586       90.89680
C         57.89708       68.46943       88.83930
H         59.54505       69.81574       90.14282
H         57.78000       70.44643       87.99007
H         57.07801       68.04049       88.24219
H         58.85012       68.23666       88.31780
H         57.90440       67.97227       89.83318
N         55.22351       70.24204       89.09438
C         55.02931       70.10926       87.65397
C         53.62720       69.59824       87.34363
O         52.67653       70.21529       87.80502
C         55.20243       71.48540       86.99599
H         54.39625       70.46764       89.66977
H         55.78903       69.44513       87.21784
H         54.45784       72.20816       87.39397
H         56.21397       71.89673       87.18760
H         55.06738       71.40106       85.89612
N         53.37167       68.53124       86.52666
C         54.38917       67.74716       85.82785
C         55.13778       66.78375       86.74087
O         56.09615       66.17853       86.27902
C         53.76036       66.97986       84.64008
C         52.78745       65.85987       85.05476
C         52.12427       65.26797       83.84554
O         52.27016       64.08671       83.57652
O         51.34623       66.03896       83.06081
H         52.37899       68.34203       86.32225
H         55.10592       68.46107       85.36565
H         54.56888       66.52887       84.02188
H         53.22922       67.72406       84.00600
H         51.98859       66.24520       85.71870
H         53.34576       65.07106       85.60544
N         54.74427       66.54874       88.02568
C         55.42300       65.58981       88.87272
H         56.47969       65.88783       89.02817
H         54.92072       65.53479       89.86168
H         55.39388       64.58239       88.40500
H         53.92417       67.03288       88.41687
Ca        61.60077       75.52376       93.92944
O         59.42310       76.10997       96.02618
H         58.58178       76.41435       96.44925
H         60.12728       76.66525       96.44532
O         59.10450       73.42885       94.25175
H         58.56778       73.00997       93.53285
H         58.43676       73.72935       94.91789
O         60.25894       76.80230       91.70872
H         59.37747       76.35326       91.66854
H         60.87320       76.18609       91.23555

Ca 1.0



