%chk=apoCaM-CA-Ng.loop3.water3.frame527.chk
%nprocshared=20
%mem=10GB
%nosave
#b3lyp/svp scf=(tight,noincore,xqc) Test 
#IOP(5/87=12) Density=Current Pop=(MK,readradii) iop(6/33=2) iop(6/42=6)

apoCaM-CA-Ng.loop3.water3.frame527 

   0  1 
C         73.58252       -1.16624       79.30940
C         72.91790       -2.23568       80.12661
O         71.76285       -2.55295       79.88127
H         74.47972       -1.58639       78.80699
H         72.89288       -0.76974       78.53446
H         73.89687       -0.33115       79.97056
N         73.61202       -2.84868       81.12362
C         73.05796       -3.91539       81.95352
C         71.88722       -3.38654       82.76794
O         72.00234       -2.28451       83.28880
C         74.15713       -4.47224       82.88489
C         73.83431       -5.84136       83.41997
O         74.56971       -6.35231       84.24844
O         72.80717       -6.55668       82.91594
H         74.58947       -2.55326       81.27748
H         72.72617       -4.73316       81.28352
H         74.34063       -3.74807       83.70912
H         75.10719       -4.59478       82.32682
N         70.73748       -4.10859       82.93471
C         69.55191       -3.55383       83.59221
C         69.36196       -4.07159       85.01929
O         68.58623       -3.47498       85.75186
C         68.34054       -3.80741       82.68126
C         67.10396       -2.95562       82.99260
C         65.99880       -3.24517       81.96461
C         64.81241       -2.28831       82.11932
N         63.78443       -2.57191       81.11710
H         70.68887       -5.06746       82.55693
H         69.69250       -2.45472       83.68603
H         68.09954       -4.88936       82.72006
H         68.64552       -3.55050       81.64133
H         67.39707       -1.88554       82.91661
H         66.72278       -3.15478       84.01582
H         65.65087       -4.29431       82.08321
H         66.40825       -3.11961       80.93749
H         65.16890       -1.24211       81.98677
H         64.37641       -2.38750       83.13736
H         63.00091       -1.88843       81.22565
H         64.18219       -2.47659       80.15386
H         63.41198       -3.54039       81.24819
N         70.08351       -5.12528       85.50279
C         70.13029       -5.51054       86.91945
C         71.56040       -5.38781       87.46010
O         71.75957       -5.64773       88.63883
C         69.53704       -6.93252       87.15055
C         70.24264       -8.03607       86.41475
O         71.33831       -7.73722       85.71305
O         69.81456       -9.17754       86.43889
H         70.67298       -5.64581       84.84219
H         69.50464       -4.81834       87.52379
H         68.48032       -6.91858       86.80862
H         69.54432       -7.17115       88.23676
N         72.60209       -4.97122       86.67192
C         73.96279       -4.78788       87.15055
C         74.70102       -6.06358       87.51851
O         75.84512       -5.94160       87.93143
H         72.43877       -4.70156       85.69333
H         73.94681       -4.09643       88.02006
H         74.55640       -4.30031       86.34554
N         74.14625       -7.30696       87.40326
C         74.83447       -8.53535       87.79121
C         74.93655       -9.52672       86.63857
O         74.34919       -9.32288       85.58747
C         74.05885       -9.19112       88.95313
C         74.00306       -8.30141       90.16813
N         75.13628       -7.96037       90.82428
O         72.92336       -7.89600       90.57208
H         73.18809       -7.39980       87.06386
H         75.87237       -8.31076       88.11714
H         74.53043      -10.15009       89.25392
H         73.02326       -9.41333       88.60682
H         76.05327       -8.30659       90.50687
H         75.09669       -7.35813       91.65954
N         75.69887      -10.64572       86.79853
C         75.82691      -11.72881       85.83417
C         76.32473      -11.28791       84.47609
O         77.28585      -10.53546       84.40153
H         76.22109      -10.75296       87.68173
H         74.85802      -12.26169       85.73580
H         76.56083      -12.45731       86.24182
N         75.75182      -11.79968       83.34473
C         76.19841      -11.46813       81.99366
C         75.90607      -10.01731       81.63944
O         75.33176       -9.29410       82.44128
C         75.59294      -12.45219       80.95785
C         76.19085      -13.83720       81.07817
C         77.56796      -14.02528       80.85347
C         75.39195      -14.95257       81.38073
C         78.13536      -15.29804       80.93624
C         75.96348      -16.22915       81.46053
C         77.33815      -16.40443       81.23812
O         77.90272      -17.62710       81.30611
H         75.00743      -12.50327       83.45286
H         77.30368      -11.57105       81.95328
H         75.80958      -12.12002       79.92225
H         74.49069      -12.48119       81.07051
H         78.20637      -13.18702       80.60478
H         74.32884      -14.83794       81.54976
H         79.19651      -15.42350       80.75902
H         75.33765      -17.08189       81.69108
H         77.38906      -18.42276       81.50405
N         76.38888       -9.51608       80.46260
C         76.45752       -8.10428       80.09416
C         75.10192       -7.43236       79.90101
O         74.33079       -7.35446       80.84178
C         77.31624       -7.31557       81.13793
C         77.52468       -5.82431       80.75621
C         78.67189       -8.00623       81.39032
C         78.30183       -5.58355       79.45894
H         76.87044      -10.16512       79.82209
H         77.00279       -8.05957       79.12771
H         76.77704       -7.30985       82.11000
H         78.07052       -5.32144       81.58428
H         76.53969       -5.32368       80.66205
H         79.25684       -7.43973       82.14529
H         78.52729       -9.03043       81.79298
H         79.26328       -8.09000       80.45600
H         79.32315       -6.01062       79.51837
H         77.77176       -6.01129       78.58533
H         78.39961       -4.49047       79.29339
N         74.81690       -6.79173       78.72678
C         73.71477       -5.83540       78.60307
C         72.31978       -6.43511       78.71981
O         71.37947       -5.66735       78.87875
C         73.82453       -5.03127       77.29623
O         75.04401       -4.33565       77.24844
H         75.49328       -6.86610       77.95297
H         73.84226       -5.10830       79.42794
H         73.00798       -4.27950       77.24021
H         73.70815       -5.70233       76.41308
H         75.67383       -4.87721       76.70530
N         72.08595       -7.77137       78.61258
C         70.74570       -8.34303       78.72692
C         70.24879       -8.23013       80.16023
O         70.98831       -8.63708       81.04240
C         70.77051       -9.81999       78.31975
H         72.87837       -8.39930       78.41018
H         70.07140       -7.83710       78.01080
H         69.74904      -10.25148       78.38139
H         71.12318       -9.91299       77.27048
H         71.44452      -10.40701       78.97400
N         69.02867       -7.73310       80.52297
C         67.99300       -7.24495       79.61927
C         67.50876       -8.34521       78.68129
O         67.12665       -9.39047       79.19008
C         66.77213       -6.77676       80.42521
H         68.81971       -7.71930       81.53476
H         68.37653       -6.34879       79.10981
H         65.98429       -6.38450       79.74699
H         66.34281       -7.60946       81.02470
H         67.06123       -5.96537       81.11148
N         67.40107       -8.21120       77.32383
C         67.73844       -7.02406       76.54525
C         68.43101       -7.43712       75.26187
O         69.57043       -7.04554       75.04771
C         66.46103       -6.20180       76.28865
C         66.76216       -4.85987       75.60475
C         65.51075       -4.04572       75.44599
O         64.58508       -4.46347       74.76873
O         65.40669       -2.84494       76.04754
H         66.95376       -8.99312       76.82010
H         68.43644       -6.36871       77.09018
H         65.99261       -5.98100       77.27341
H         65.73389       -6.79032       75.68848
H         67.21545       -5.02678       74.60482
H         67.48392       -4.28855       76.22967
N         67.79889       -8.23574       74.35718
C         68.42996       -8.65570       73.12639
H         69.35245       -9.23194       73.35114
H         67.73690       -9.30515       72.55011
H         68.68406       -7.76859       72.50876
H         66.83898       -8.56206       74.54323
Ca        72.24084       -8.51036       83.85168
O         72.68776      -10.75344       81.58724
H         73.02512      -10.68236       80.65919
H         71.86180      -11.29414       81.51288
O         69.61806       -9.92239       83.26791
H         69.73158      -10.27573       84.18377
H         68.65818       -9.69055       83.21288
O         72.49850      -11.72787       84.41543
H         72.80818      -12.61615       84.10991
H         71.52750      -11.74204       84.23339

Ca 1.0



