%chk=apoCaM-CA-Ng.loop4.water5.frame674.chk
%nprocshared=20
%mem=10GB
%nosave
#b3lyp/svp scf=(tight,noincore,xqc) Test 
#IOP(5/87=12) Density=Current Pop=(MK,readradii) iop(6/33=2) iop(6/42=6)

apoCaM-CA-Ng.loop4.water5.frame674 

   -3  1 
C        -19.49971       45.72306      101.55551
C        -19.65301       45.68532      103.04585
O        -19.84849       46.72432      103.65958
H        -18.50516       45.32123      101.27149
H        -20.29200       45.10431      101.08401
H        -19.58599       46.75761      101.17523
N        -19.58559       44.48936      103.69221
C        -19.73289       44.30666      105.13193
C        -21.10060       44.78458      105.59644
O        -21.19442       45.56199      106.53771
C        -18.57210       44.97550      105.90419
C        -17.23490       44.46982      105.44051
O        -16.41747       45.24500      104.97180
O        -16.92947       43.16225      105.54358
H        -19.43490       43.64027      103.12510
H        -19.68783       43.21309      105.33522
H        -18.67177       44.75817      106.98935
H        -18.61239       46.07841      105.77211
N        -22.21962       44.36400      104.94164
C        -23.56883       44.78833      105.32501
C        -23.98852       44.06446      106.61256
O        -23.29683       43.12360      106.98010
C        -24.57247       44.54493      104.14718
C        -24.79351       43.03401      103.85948
C        -24.11656       45.32409      102.89472
C        -25.86493       42.76609      102.80169
H        -22.08686       43.76165      104.11734
H        -23.53008       45.88372      105.50331
H        -25.55049       44.96806      104.42196
H        -25.13979       42.54012      104.79236
H        -23.85241       42.54203      103.53965
H        -23.15814       44.93561      102.49239
H        -24.87649       45.27125      102.09002
H        -23.98445       46.39897      103.14263
H        -26.01569       41.67062      102.70143
H        -26.82829       43.22992      103.10285
H        -25.55919       43.15495      101.80979
N        -25.08508       44.37550      107.37303
C        -25.98352       45.51748      107.20795
C        -25.20688       46.80286      107.41501
O        -25.20945       47.66011      106.54261
C        -27.14251       45.41566      108.22624
C        -28.15199       46.51647      108.05289
O        -28.41279       47.35937      109.06975
O        -28.75221       46.64049      106.99681
H        -25.26447       43.75556      108.18017
H        -26.45799       45.49684      106.21256
H        -26.74485       45.43378      109.26426
H        -27.66816       44.44630      108.07929
N        -24.46144       46.96290      108.54262
C        -23.58343       48.09195      108.76581
C        -24.31758       49.36062      109.11397
O        -25.00924       49.37889      110.12262
H        -24.43769       46.19950      109.23605
H        -22.91001       48.21911      107.89093
H        -22.93835       47.86539      109.64290
N        -24.12132       50.49387      108.38079
C        -24.55844       51.81457      108.82698
C        -25.54022       52.50956      107.89255
O        -25.97747       53.59493      108.25126
C        -23.30030       52.67195      109.12444
C        -22.29507       52.73888      107.99945
O        -21.05993       52.23131      108.17714
O        -22.57595       53.25347      106.93307
H        -23.54332       50.43561      107.52831
H        -25.10935       51.73484      109.78969
H        -22.78192       52.20288      109.98903
H        -23.59204       53.69957      109.43038
N        -25.98011       51.96587      106.71882
C        -26.98589       52.62290      105.88377
C        -26.53760       53.94037      105.26473
O        -27.33640       54.56029      104.57875
H        -25.63956       51.03955      106.42337
H        -27.89726       52.79875      106.49500
H        -27.26233       51.94323      105.04858
N        -25.27054       54.40978      105.43001
C        -24.70773       55.60597      104.81670
C        -24.71435       55.46934      103.30786
O        -25.01316       56.41265      102.58913
C        -25.35405       56.90135      105.34359
C        -25.31291       56.94295      106.88164
C        -25.86581       58.21404      107.47092
N        -25.93099       58.34923      108.81532
O        -26.25703       59.12185      106.75150
H        -24.61277       53.85764      105.97993
H        -23.63327       55.63286      105.11148
H        -26.40991       56.97084      105.00484
H        -24.79145       57.76866      104.93184
H        -24.26393       56.82413      107.23019
H        -25.91669       56.09937      107.27725
H        -25.61242       57.58856      109.43428
H        -26.30627       59.20994      109.23951
N        -24.40209       54.25780      102.77809
C        -24.32220       53.95350      101.36087
C        -22.97380       53.33686      101.03406
O        -22.45343       53.64777       99.97067
C        -25.49563       53.04134      100.89866
C        -25.62323       51.73537      101.69962
C        -26.82351       53.81291      100.94790
H        -24.24273       53.48760      103.43770
H        -24.40793       54.88220      100.75129
H        -25.32242       52.77616       99.83100
H        -24.69541       51.13444      101.63046
H        -25.84837       51.94186      102.76700
H        -26.45348       51.12135      101.28923
H        -26.76056       54.72331      100.31286
H        -27.65112       53.18493      100.55453
H        -27.06972       54.11983      101.98407
N        -22.35028       52.44948      101.87492
C        -21.10950       51.77593      101.53045
C        -19.98421       52.18861      102.47859
O        -20.24030       52.75839      103.53169
C        -21.39709       50.25791      101.52422
C        -20.41898       49.43172      100.72901
N        -20.83758       48.77283       99.61969
O        -19.25538       49.33699      101.08456
H        -22.76885       52.19374      102.77850
H        -20.81402       52.08190      100.50353
H        -22.39030       50.12254      101.04330
H        -21.49119       49.87454      102.56429
H        -21.81852       48.82979       99.30538
H        -20.18321       48.20185       99.06623
N        -18.69463       52.02757      102.08367
C        -17.51668       52.48949      102.82779
C        -16.28546       52.40984      101.92564
O        -16.31454       51.68767      100.94055
C        -17.30329       51.65021      104.11910
C        -16.05109       52.04232      104.87949
C        -14.97382       51.14222      104.97740
C        -15.93440       53.31076      105.47452
C        -13.79454       51.51329      105.63007
C        -14.75436       53.67744      106.13348
C        -13.67869       52.78545      106.20588
O        -12.54121       53.16176      106.82557
H        -18.57094       51.63433      101.14197
H        -17.67189       53.56369      103.07281
H        -17.22749       50.58397      103.81053
H        -18.17791       51.73500      104.79874
H        -15.03605       50.15775      104.53181
H        -16.75100       54.01885      105.41833
H        -12.96884       50.81414      105.68035
H        -14.67125       54.66046      106.58000
H        -11.76796       52.58165      106.88088
N        -15.17932       53.16952      102.16522
C        -14.00989       53.14214      101.29780
C        -12.78216       52.75185      102.11035
O        -12.08924       53.64224      102.58416
C        -13.85484       54.50366      100.58936
C        -12.74680       54.45407       99.52194
C        -12.61939       55.76269       98.80070
O        -11.45400       56.43652       98.83013
O        -13.56160       56.21287       98.16816
H        -15.17419       53.82155      102.96348
H        -14.14844       52.42641      100.47121
H        -13.65229       55.30793      101.33044
H        -14.81544       54.74017      100.07862
H        -12.98239       53.66231       98.77659
H        -11.77405       54.20609       99.99641
N        -12.44006       51.45476      102.37330
C        -13.16198       50.27763      101.89818
C        -13.09831       50.15416      100.38514
O        -12.01875       50.24273       99.81681
C        -12.59799       48.98944      102.54025
C        -13.45650       47.77919      102.13187
C        -13.04929       46.50141      102.79284
O        -13.95695       45.83458      103.53002
O        -11.94132       46.02492      102.60501
H        -11.61296       51.30147      102.97258
H        -14.21723       50.35325      102.23604
H        -12.63939       49.09788      103.64632
H        -11.53739       48.83302      102.24080
H        -13.39933       47.62216      101.03423
H        -14.51602       47.98571      102.40042
N        -14.23685       49.89248       99.68228
C        -14.28951       49.74817       98.24409
H        -15.01036       50.48558       97.83233
H        -13.30235       49.91158       97.76574
H        -14.64401       48.72598       97.99365
H        -15.11922       49.75503      100.19340
Ca       -13.65222       43.70496      104.19987
O        -14.45934       40.72536      104.55973
H        -13.88621       40.49183      105.33265
H        -14.03804       40.26556      103.79070
O        -13.14227       41.98962      101.64161
H        -12.34943       41.39740      101.60948
H        -13.25201       42.30991      100.71136
O        -13.37655       44.44890      106.99627
H        -13.98542       45.22834      107.04214
H        -13.77822       43.78107      107.60674
O        -10.82286       43.03322      104.47458
H        -10.74674       42.56901      105.34567
H        -11.08626       42.32260      103.83716
O        -15.63463       44.62031      101.36365
H        -15.81750       45.59246      101.41133
H        -14.71216       44.55934      101.00876

Ca 1.0



