%chk=apoCaM-CA-Ng.loop3.water5.frame1069.chk
%nprocshared=20
%mem=10GB
%nosave
#b3lyp/svp scf=(tight,noincore,xqc) Test 
#IOP(5/87=12) Density=Current Pop=(MK,readradii) iop(6/33=2) iop(6/42=6)

apoCaM-CA-Ng.loop3.water5.frame1069 

   0  1 
C         41.86204       68.57795       21.30941
C         42.80004       69.41576       22.12081
O         42.95861       69.15336       23.30498
H         41.04699       69.21851       20.91192
H         42.41283       68.11469       20.46497
H         41.41483       67.77486       21.93338
N         43.45471       70.45883       21.53763
C         44.36668       71.33255       22.26908
C         43.85843       72.75993       22.36358
O         44.41121       73.49947       23.15722
C         45.78363       71.26880       21.66255
C         45.89880       71.76021       20.23676
O         47.08462       71.68019       19.61063
O         44.94391       72.22686       19.63642
H         43.28723       70.63110       20.53554
H         44.44587       70.97850       23.31953
H         46.12273       70.21116       21.69362
H         46.47546       71.86567       22.29410
N         42.79930       73.21693       21.63715
C         42.25957       74.56653       21.78664
C         43.28882       75.59912       21.34742
O         43.69504       75.58276       20.19328
C         40.95035       74.72352       20.97669
C         39.87410       73.71935       21.44118
C         38.58064       73.84090       20.63149
C         37.57290       72.76883       21.07592
N         36.33663       72.85135       20.30095
H         42.34973       72.58179       20.96769
H         41.99815       74.72515       22.85691
H         41.16017       74.56869       19.89514
H         40.55886       75.75594       21.11491
H         39.65534       73.88225       22.51915
H         40.24005       72.68035       21.31732
H         38.80783       73.69482       19.55253
H         38.14479       74.85346       20.77401
H         37.34049       72.89901       22.15627
H         38.02036       71.75850       20.93520
H         35.67817       72.10872       20.63058
H         35.88968       73.78675       20.43649
H         36.53823       72.69703       19.28624
N         43.76153       76.52885       22.23037
C         44.75620       77.54568       21.87530
C         46.12561       76.96182       21.49379
O         46.97721       77.71602       21.04474
C         44.88947       78.59034       23.01517
C         45.37613       78.05305       24.34008
O         45.66433       76.87595       24.48518
O         45.48371       78.89172       25.38824
H         43.36960       76.53152       23.18295
H         44.36560       78.09308       20.98889
H         43.88888       79.04553       23.18582
H         45.57760       79.40187       22.69523
N         46.41040       75.63747       21.65371
C         47.66251       74.99232       21.28929
C         47.87395       74.92406       19.78892
O         47.06426       75.46769       19.05114
H         45.71382       75.03603       22.08704
H         47.61640       73.94544       21.65558
H         48.51320       75.50353       21.78899
N         48.93436       74.26829       19.22524
C         49.97034       73.54133       19.95573
C         50.05696       72.09810       19.43373
O         50.24407       71.92843       18.23641
C         51.31356       74.26515       19.76777
C         52.41547       73.62812       20.58080
N         53.51474       73.11890       19.97958
O         52.31716       73.58033       21.79824
H         49.01731       74.29513       18.19620
H         49.76218       73.56342       21.03928
H         51.20551       75.31768       20.10897
H         51.57878       74.28032       18.68861
H         53.62153       73.15347       18.95578
H         54.26349       72.68746       20.54163
N         49.95277       70.99683       20.23938
C         49.78517       71.10963       21.67532
C         49.73348       69.80338       22.43468
O         49.77328       68.72375       21.86520
H         50.02299       70.06335       19.80545
H         48.84314       71.65413       21.88940
H         50.64457       71.67556       22.08410
N         49.62417       69.88988       23.79086
C         49.51333       68.75634       24.71298
C         49.23059       69.27357       26.13397
O         49.36819       70.46207       26.38698
C         50.81172       67.90388       24.69096
C         50.71271       66.61501       25.47581
C         51.53343       66.38832       26.59479
C         49.80690       65.61556       25.07961
C         51.44066       65.18801       27.30844
C         49.71792       64.41629       25.79290
C         50.53404       64.19930       26.91184
O         50.45788       63.04748       27.60930
H         49.57430       70.84789       24.16229
H         48.63850       68.15622       24.37937
H         51.64302       68.53525       25.07604
H         51.07597       67.61783       23.65258
H         52.24401       67.13849       26.91790
H         49.17289       65.76256       24.21462
H         52.07595       65.02474       28.17018
H         49.01612       63.65602       25.47350
H         49.84434       62.33858       27.36791
N         48.76475       68.44243       27.10827
C         48.42049       68.95107       28.43893
C         49.62563       69.42089       29.23559
O         50.72695       68.91966       29.05606
C         47.54400       67.98042       29.29475
C         46.05354       68.01018       28.87791
C         48.07021       66.53016       29.29805
C         45.37126       69.35136       29.20227
H         48.57851       67.46648       26.85670
H         47.83170       69.87050       28.27678
H         47.56785       68.32902       30.35239
H         45.50753       67.24336       29.46905
H         45.94091       67.76744       27.79946
H         47.95537       66.03943       28.30967
H         49.13665       66.49359       29.60117
H         47.48254       65.91905       30.01577
H         44.28964       69.28916       28.96788
H         45.47963       69.58011       30.28527
H         45.77721       70.20044       28.62028
N         49.44972       70.43382       30.13926
C         50.50111       70.95895       31.00844
C         50.12173       72.32887       31.59626
O         49.07272       72.86743       31.27192
C         50.80462       69.92522       32.11269
O         49.66255       69.71097       32.89695
H         48.50632       70.84515       30.20489
H         51.41977       71.13298       30.40652
H         51.63808       70.27377       32.75861
H         51.12050       68.96853       31.64106
H         49.88678       68.96701       33.51481
N         50.96500       72.96111       32.46376
C         50.74678       74.28470       33.04618
C         49.42817       74.38886       33.80456
O         48.70406       75.36116       33.63471
C         50.89618       75.37420       31.97356
H         51.83340       72.48157       32.74110
H         51.55789       74.45004       33.78960
H         50.11214       75.27695       31.19342
H         50.81993       76.38305       32.43292
H         51.89223       75.28971       31.48938
N         49.05051       73.39503       34.65656
C         47.82968       73.39824       35.45782
C         46.59010       73.72736       34.63873
O         45.76922       74.52598       35.07390
C         47.98788       74.33700       36.66122
H         49.64842       72.55726       34.72174
H         47.69995       72.36970       35.86101
H         48.12005       75.38779       36.32609
H         47.09290       74.27807       37.31772
H         48.87480       74.03670       37.25748
N         46.40613       73.17135       33.41201
C         45.22678       73.45077       32.60776
C         44.05128       72.71818       33.20940
O         43.06300       73.34883       33.55875
C         45.48826       73.07470       31.14014
C         44.32837       73.48478       30.21750
C         44.70570       73.41298       28.76543
O         43.83829       73.85216       27.83969
O         45.81586       73.04315       28.41405
H         47.14188       72.55916       33.02903
H         45.04098       74.55083       32.60222
H         45.71489       71.99362       31.02213
H         46.38662       73.65645       30.83232
H         44.06604       74.54649       30.41722
H         43.43384       72.85522       30.41276
N         44.12178       71.37402       33.40976
C         43.06351       70.63217       34.05540
H         42.13033       70.70047       33.45944
H         43.35742       69.56505       34.14971
H         42.88833       71.03853       35.07506
H         44.97233       70.86357       33.12674
Ca        44.65735       74.15134       25.77153
O         46.17715       71.50771       25.39984
H         45.97238       70.59137       25.71285
H         46.70970       71.90727       26.13219
O         47.46632       74.36006       24.53081
H         48.08085       73.58499       24.49226
H         48.06122       75.15141       24.52191
O         42.41054       72.23367       25.09474
H         41.55980       72.70513       24.91038
H         42.42972       72.12347       26.07816
O         45.51311       76.45692       27.69961
H         44.77066       77.05384       27.43000
H         45.59389       76.58657       28.67770
O         42.41237       76.08559       25.63704
H         41.92228       75.49220       26.25961
H         41.70975       76.47788       25.06071

Ca 1.0



