%chk=apoCaM-CA-Ng.loop2.water2.frame882.chk
%nprocshared=20
%mem=10GB
%nosave
#b3lyp/svp scf=(tight,noincore,xqc) Test 
#IOP(5/87=12) Density=Current Pop=(MK,readradii) iop(6/33=2) iop(6/42=6)

apoCaM-CA-Ng.loop2.water2.frame882 

   -2  1 
C         98.91259       -5.28401       -1.34504
C         98.30586       -3.91444       -1.40723
O         97.14924       -3.80192       -1.78840
H         99.95896       -5.24810       -0.97613
H         98.31698       -5.91757       -0.65432
H         98.90541       -5.74063       -2.35638
N         99.02682       -2.81668       -1.04069
C         98.46637       -1.47149       -1.05182
C         97.29238       -1.41386       -0.09373
O         96.19053       -1.10096       -0.52197
C         99.54880       -0.43419       -0.67529
C         99.03573        0.97708       -0.75855
O         98.62305        1.42030       -1.81872
O         99.04600        1.76527        0.33330
H        100.00490       -2.94639       -0.73806
H         98.12383       -1.23851       -2.08601
H        100.40515       -0.52950       -1.37768
H         99.92864       -0.63030        0.35055
N         97.46626       -1.72574        1.22241
C         96.38390       -1.73110        2.19818
C         96.95892       -1.97656        3.59238
O         97.49683       -3.05490        3.80502
C         95.35277       -2.82593        1.87888
H         98.41982       -1.95553        1.54285
H         95.85474       -0.76577        2.13445
H         94.88707       -2.66932        0.88541
H         95.83132       -3.82895        1.88347
H         94.54065       -2.81261        2.63724
N         96.91318       -1.06504        4.61047
C         96.36221        0.28316        4.50848
C         97.17142        1.29015        5.31188
O         98.07590        0.91265        6.04264
C         94.85997        0.28010        4.86372
C         94.57318       -0.21340        6.25734
O         94.86948       -1.35148        6.58428
O         93.94101        0.58397        7.13776
H         97.31041       -1.35599        5.51730
H         96.48803        0.65398        3.47417
H         94.32188       -0.37986        4.14935
H         94.45006        1.30557        4.74550
N         96.94495        2.62134        5.13103
C         97.74376        3.66892        5.74298
C         96.85455        4.75720        6.28933
O         96.86601        5.83889        5.71877
H         96.22913        2.91056        4.44608
H         98.35500        4.11790        4.92928
H         98.45074        3.29036        6.50914
N         96.02063        4.59525        7.35266
C         95.93892        3.41344        8.20418
C         97.21538        3.31212        9.03027
O         97.56250        4.28368        9.68806
C         94.68934        3.56741        9.10255
C         94.31089        2.37542        9.93618
N         93.19366        2.44322       10.69745
O         94.97657        1.35234        9.91626
H         95.40684        5.39548        7.57898
H         95.77776        2.51124        7.57683
H         93.81954        3.75499        8.43466
H         94.81316        4.44722        9.77030
H         92.61833        3.29738       10.70646
H         92.88591        1.65221       11.27370
N         97.96711        2.17403        9.03965
C         99.25213        2.06457        9.72289
C         99.22327        1.15120       10.93105
O        100.27117        0.97477       11.53728
H         97.62355        1.34922        8.53059
H         99.59873        3.05581       10.08753
H        100.00579        1.70194        8.99161
N         98.06535        0.59861       11.39051
C         97.96261       -0.15851       12.63541
C         97.34853       -1.53168       12.38471
O         97.06114       -1.86280       11.24290
C         97.10780        0.66614       13.63746
C         97.75537        2.01528       13.96311
O         95.82715        0.90237       13.11553
H         97.18946        0.78120       10.88484
H         98.96149       -0.31790       13.09787
H         97.02927        0.13183       14.61181
H         95.27062        0.12901       13.38411
H         98.76151        1.86153       14.40739
H         97.85282        2.64343       13.05223
H         97.12692        2.56537       14.69580
N         97.08711       -2.37183       13.42817
C         96.39192       -3.64967       13.29963
C         95.02409       -3.48907       13.94858
O         94.92450       -3.11975       15.11093
C         97.24480       -4.80281       13.89190
C         96.47079       -6.14432       14.02855
C         98.52015       -4.99158       13.04741
C         95.93525       -6.74143       12.72414
H         97.33376       -2.06704       14.38195
H         96.22773       -3.89315       12.22666
H         97.54880       -4.51767       14.92317
H         95.61154       -5.99468       14.71712
H         97.13957       -6.89527       14.50265
H         99.15348       -5.79806       13.47207
H         98.26698       -5.25606       11.99774
H         99.11821       -4.05694       13.02277
H         95.38661       -7.68013       12.95237
H         95.23028       -6.04699       12.23375
H         96.75500       -6.98735       12.02050
N         93.92055       -3.69221       13.18225
C         92.54945       -3.36864       13.53161
C         91.61967       -4.57686       13.44995
O         90.42280       -4.36713       13.58479
C         92.06494       -2.31736       12.50342
C         92.81259       -1.02020       12.60978
O         92.67500       -0.33397       13.60977
O         93.60347       -0.57126       11.61070
H         94.06939       -4.02970       12.23091
H         92.47203       -2.94256       14.55727
H         90.98866       -2.08198       12.65139
H         92.17774       -2.73161       11.47933
N         92.06644       -5.86001       13.26015
C         91.14488       -6.98873       13.12855
C         91.57027       -7.93336       11.99163
O         92.65923       -8.47773       12.09031
C         91.08312       -7.78843       14.45156
C         90.09174       -8.93325       14.34904
C         90.53415      -10.26520       14.42743
C         88.72048       -8.68132       14.15068
C         89.62663      -11.32138       14.29243
C         87.81718       -9.74044       14.01571
C         88.27045      -11.05949       14.08295
H         93.07585       -6.05275       13.25749
H         90.12898       -6.59850       12.96818
H         90.77497       -7.12355       15.28853
H         92.09945       -8.17273       14.68814
H         91.58242      -10.48800       14.57877
H         88.34879       -7.66630       14.09209
H         89.97600      -12.34436       14.34413
H         86.76574       -9.53874       13.85402
H         87.57094      -11.87846       13.97275
N         90.74486       -8.26940       10.94067
C         91.00479       -9.40175       10.04326
C         92.24741       -9.36095        9.16832
O         92.53926      -10.36605        8.53381
C         89.78463       -9.40859        9.11535
C         88.69470       -8.88796       10.01724
C         89.40654       -7.74845       10.73123
H         91.03198      -10.30821       10.68931
H         89.92490       -8.63586        8.32178
H         89.57998      -10.38451        8.62717
H         87.75738       -8.58797        9.50271
H         88.46417       -9.68220       10.76352
H         89.48144       -6.84377       10.08707
H         88.82241       -7.53323       11.64339
N         92.96239       -8.22107        8.99296
C         94.06197       -8.10138        8.02542
C         95.29901       -8.92451        8.36596
O         96.21479       -8.93761        7.55441
C         94.41972       -6.61092        7.85670
C         94.98126       -6.01745        9.15377
C         94.53340       -4.60707        9.31991
O         93.58296       -4.39021       10.04886
O         95.12144       -3.56619        8.71602
H         92.62553       -7.37892        9.48221
H         93.67725       -8.45140        7.04178
H         93.45454       -6.11669        7.59928
H         95.12051       -6.41173        7.01724
H         96.07532       -6.16586        9.28010
H         94.53660       -6.54843       10.01889
N         95.41755       -9.62992        9.52679
C         96.59669      -10.41755        9.81932
H         97.49540       -9.76493        9.84339
H         96.48904      -10.91307       10.80728
H         96.73070      -11.20141        9.04287
H         94.66627       -9.61598       10.22958
Ca        94.54492       -1.76419        9.93943
O         91.89260       -2.29235        8.62359
H         92.04384       -2.67479        7.72294
H         91.21111       -1.58774        8.48694
O         97.40175       -1.32058        8.33302
H         97.46071       -2.25877        8.02393
H         98.26402       -0.91886        8.06046

Ca 1.0



