%chk=apoCaM-CA-Ng.loop2.water4.frame459.chk
%nprocshared=20
%mem=10GB
%nosave
#b3lyp/svp scf=(tight,noincore,xqc) Test 
#IOP(5/87=12) Density=Current Pop=(MK,readradii) iop(6/33=2) iop(6/42=6)

apoCaM-CA-Ng.loop2.water4.frame459 

   -2  1 
C         57.23388       69.31450       67.91212
C         57.81957       70.19808       66.84794
O         59.00780       70.10683       66.57458
H         56.42299       68.69320       67.47531
H         58.00593       68.64116       68.34093
H         56.81051       69.93640       68.72794
N         57.01920       71.07614       66.18561
C         57.49421       71.94700       65.11641
C         58.48894       72.97331       65.63976
O         58.15984       73.70997       66.55912
C         56.29882       72.66836       64.45961
C         56.72653       73.48975       63.27355
O         56.51211       74.81870       63.25913
O         57.26465       72.95494       62.31666
H         56.01694       71.09464       66.43362
H         57.96225       71.31355       64.32962
H         55.79309       73.31895       65.20683
H         55.56398       71.91276       64.10524
N         59.70430       73.12431       65.04091
C         60.65719       74.15563       65.43819
C         61.24257       73.86024       66.81063
O         61.82046       72.79989       67.00587
C         61.77249       74.28518       64.39742
H         59.92555       72.53041       64.22666
H         60.13340       75.13887       65.43849
H         62.34859       73.34188       64.30401
H         61.32717       74.53486       63.40878
H         62.46005       75.11173       64.67952
N         61.11469       74.77360       67.81344
C         61.58405       74.58153       69.18871
C         63.10980       74.64097       69.35621
O         63.54859       74.69406       70.49734
C         60.92744       75.63572       70.11797
C         59.42610       75.49110       70.18506
O         58.73357       75.66230       69.19492
O         58.83620       75.17977       71.35525
H         60.60021       75.63992       67.59481
H         61.24025       73.59622       69.56998
H         61.19877       76.66432       69.79621
H         61.30630       75.48838       71.15343
N         63.98917       74.61273       68.31089
C         65.43577       74.72048       68.47502
C         66.11810       73.64421       69.31834
O         67.32558       73.76168       69.47518
H         63.64374       74.55712       67.34534
H         65.65760       75.70510       68.94250
H         65.91029       74.71457       67.46922
N         65.45274       72.61549       69.93085
C         66.10309       71.67952       70.84870
C         65.79967       70.24275       70.47077
O         64.63970       69.85223       70.47115
C         65.61134       71.93841       72.28578
C         66.04992       73.29420       72.78350
N         65.14366       74.23131       73.14466
O         67.24324       73.54480       72.86989
H         64.43774       72.51393       69.80735
H         67.20693       71.82056       70.84810
H         66.03955       71.17460       72.97136
H         64.50289       71.84729       72.31867
H         64.13298       74.04339       73.08266
H         65.45560       75.15258       73.48647
N         66.81127       69.38821       70.15312
C         66.59998       67.98693       69.83081
C         66.26428       67.14016       71.04557
O         66.19012       67.64507       72.15660
H         67.77753       69.74708       70.11008
H         67.55241       67.57592       69.43071
H         65.82765       67.89068       69.03783
N         66.11777       65.79471       70.88109
C         65.95822       64.84042       71.98064
C         64.72652       65.10640       72.82912
O         64.85666       65.09291       74.04714
C         66.01738       63.36412       71.49366
C         64.90786       62.94430       70.51795
O         67.28388       63.07950       70.94835
H         66.18899       65.43425       69.91935
H         66.83894       64.94276       72.65466
H         65.91252       62.71721       72.39290
H         67.35808       63.53152       70.06886
H         65.03467       61.87042       70.26214
H         63.90986       63.06822       70.97773
H         64.94857       63.53133       69.57821
N         63.51754       65.40175       72.27547
C         62.33803       65.72460       73.07759
C         62.00928       67.19512       72.95194
O         62.65082       67.90718       72.18649
C         61.10463       64.84141       72.69386
C         60.73191       64.97302       71.19241
C         61.33860       63.38291       73.11257
C         59.36508       64.37475       70.85200
H         63.45382       65.47617       71.24836
H         62.54286       65.57206       74.16097
H         60.23403       65.19195       73.28683
H         61.50877       64.49423       70.55921
H         60.67423       66.04867       70.91978
H         61.55118       63.33726       74.20240
H         60.43573       62.76481       72.93509
H         62.19293       62.94144       72.56418
H         58.57038       64.88794       71.43559
H         59.15594       64.52697       69.77180
H         59.32669       63.28698       71.05643
N         60.99092       67.71355       73.68627
C         60.53382       69.08271       73.58035
C         60.50701       69.75520       74.96326
O         59.85281       70.77260       75.13023
C         59.14498       69.00927       72.91351
C         58.64208       70.33762       72.44947
O         57.43667       70.43010       71.87640
O         59.29547       71.35725       72.61153
H         60.46187       67.09390       74.32214
H         61.18833       69.67212       72.90120
H         58.41435       68.54712       73.61535
H         59.20724       68.36789       72.00649
N         61.22166       69.23846       76.00700
C         61.16134       69.76632       77.36773
C         59.76723       69.51627       77.94188
O         59.34014       68.36996       77.92697
C         62.19371       69.02533       78.25173
C         62.09951       69.43654       79.70333
C         62.55442       70.69244       80.14215
C         61.52149       68.55363       80.63104
C         62.42746       71.05325       81.48979
C         61.38526       68.92235       81.96970
C         61.83882       70.17037       82.40053
H         61.83373       68.42900       75.83467
H         61.43273       70.84314       77.36783
H         63.23069       69.18363       77.88108
H         61.98274       67.93691       78.16713
H         63.00531       71.38905       79.44614
H         61.15431       67.58626       80.31200
H         62.77938       72.01885       81.82957
H         60.92302       68.23939       82.67029
H         61.73161       70.45175       83.44003
N         59.01443       70.50273       78.52047
C         57.75315       70.24934       79.19978
C         56.56539       70.22836       78.24870
O         55.44772       70.20866       78.74677
C         57.66731       71.43075       80.17394
C         58.23351       72.55958       79.34075
C         59.43784       71.88029       78.69329
H         57.76489       69.31613       79.80672
H         56.66397       71.61023       80.61727
H         58.38228       71.24662       81.01019
H         57.48460       72.79637       78.55240
H         58.47209       73.49124       79.89599
H         59.69317       72.38822       77.73948
H         60.30334       71.89643       79.38558
N         56.70608       70.21469       76.88836
C         55.56313       70.26703       75.98351
C         55.30732       68.92249       75.31299
O         54.37702       68.84382       74.52268
C         55.72698       71.41873       74.95731
C         56.06717       72.75801       75.64045
C         55.84731       74.01264       74.81023
O         56.34099       74.18874       73.56603
O         55.21125       74.92880       75.30494
H         57.64215       70.15615       76.46524
H         54.63559       70.49059       76.55363
H         54.77175       71.50992       74.39987
H         56.54024       71.17052       74.24797
H         57.12830       72.71205       75.97030
H         55.43858       72.86725       76.55121
N         56.03675       67.80685       75.62221
C         55.75600       66.49245       75.07567
H         54.90117       66.49666       74.36742
H         56.65271       66.10776       74.54780
H         55.50658       65.79837       75.90749
H         56.80814       67.85972       76.30198
Ca        56.74949       72.51713       72.14643
O         59.10946       71.95510       69.40849
H         59.27518       72.17284       68.45792
H         59.90621       71.43534       69.68200
O         55.52613       74.87797       70.76002
H         55.69129       75.60545       70.10981
H         54.69822       75.14434       71.23306
O         55.85537       72.50783       68.88986
H         56.60181       73.05428       68.54000
H         55.04227       72.93189       68.51719
O         54.03207       71.86421       71.20706
H         53.82854       71.70431       72.16216
H         54.18908       70.96149       70.83194

Ca 1.0



