%chk=apoCaM-CA-Ng.loop2.water3.frame1413.chk
%nprocshared=20
%mem=10GB
%nosave
#b3lyp/svp scf=(tight,noincore,xqc) Test 
#IOP(5/87=12) Density=Current Pop=(MK,readradii) iop(6/33=2) iop(6/42=6)

apoCaM-CA-Ng.loop2.water3.frame1413 

   -2  1 
C         74.81654       81.52185       92.14701
C         74.28267       80.21616       91.61822
O         75.07374       79.43439       91.11123
H         75.91410       81.59105       91.98862
H         74.33733       82.36891       91.61176
H         74.61936       81.60403       93.23645
N         72.95989       79.87753       91.67212
C         71.91393       80.71722       92.25766
C         70.91238       81.23010       91.22987
O         70.24056       82.20558       91.53683
C         71.21310       80.00433       93.44058
C         70.52294       78.69820       93.11623
O         70.55001       78.21869       91.99626
O         69.87332       78.03405       94.08944
H         72.69975       78.96620       91.26974
H         72.37119       81.63378       92.68017
H         70.45791       80.69578       93.87328
H         71.97151       79.79396       94.22475
N         70.73295       80.64134       90.01106
C         69.83058       81.17932       88.99384
C         68.51398       80.40861       88.90319
O         67.67988       80.77415       88.08698
C         70.57078       81.18189       87.64921
H         71.23299       79.76799       89.79017
H         69.55746       82.22910       89.23528
H         71.50496       81.77909       87.73090
H         70.84601       80.14396       87.35715
H         69.94218       81.62187       86.84757
N         68.25875       79.33510       89.70263
C         67.05986       78.50377       89.62997
C         66.55790       78.14995       91.03299
O         67.36632       77.79718       91.87610
C         67.38552       77.25237       88.79074
C         68.66943       76.56405       89.18068
O         68.83609       76.05479       90.41200
O         69.57879       76.47464       88.37117
H         68.99661       79.01514       90.33730
H         66.23676       79.01365       89.08084
H         67.49831       77.58572       87.73384
H         66.52989       76.54433       88.82503
N         65.22907       78.22768       91.35410
C         64.68747       77.93037       92.68300
C         64.82972       76.46748       93.08248
O         65.94262       75.96977       93.13190
H         64.56457       78.54061       90.62994
H         63.60653       78.19153       92.68824
H         65.19047       78.57528       93.43325
N         63.73571       75.71279       93.41103
C         63.82581       74.27918       93.70274
C         64.29083       73.57667       92.45188
O         63.70206       73.80522       91.40215
C         62.46788       73.68897       94.13429
C         61.98401       74.27317       95.43796
N         60.78339       74.89163       95.51606
O         62.67647       74.16946       96.44007
H         62.80691       76.16125       93.42033
H         64.54400       74.10012       94.53507
H         62.58817       72.59301       94.28806
H         61.71408       73.84027       93.33134
H         60.17790       74.97813       94.68721
H         60.45295       75.27802       96.41275
N         65.35727       72.72865       92.46634
C         65.91150       72.21901       91.22579
C         66.63060       73.34568       90.51118
O         66.85923       74.37314       91.13003
H         65.80792       72.47443       93.35792
H         65.09174       71.78418       90.61440
H         66.65913       71.42428       91.43332
N         67.04345       73.27475       89.21986
C         66.75314       72.18267       88.30553
C         67.35391       70.88179       88.80469
O         66.62323       69.90943       88.93227
C         67.27417       72.54720       86.88819
C         66.86444       71.51419       85.83614
O         66.73935       73.79238       86.50879
H         67.55261       74.09210       88.85125
H         65.64717       72.07671       88.22442
H         68.38781       72.61179       86.93162
H         67.41133       74.23790       85.92863
H         65.75687       71.45363       85.77040
H         67.26110       71.81664       84.84353
H         67.26535       70.51346       86.08226
N         68.68096       70.79910       89.10854
C         69.35056       69.56136       89.50018
C         69.93620       69.70760       90.90630
O         70.64290       70.68202       91.12445
C         70.50183       69.26388       88.49437
C         70.05532       69.30531       87.00944
C         71.18698       67.92530       88.82269
C         68.98693       68.28173       86.61935
H         69.25657       71.65201       89.02807
H         68.64068       68.71607       89.45570
H         71.26722       70.06614       88.60002
H         70.94680       69.14299       86.36532
H         69.67107       70.32040       86.77399
H         71.59211       67.93701       89.85505
H         70.47419       67.07870       88.74843
H         72.03252       67.74657       88.12651
H         68.05694       68.43322       87.20159
H         68.74301       68.40809       85.54342
H         69.34910       67.24551       86.76828
N         69.77918       68.78788       91.91037
C         69.02741       67.53910       91.81470
C         69.57336       66.46985       92.75908
O         69.83309       66.76249       93.91684
C         67.52081       67.78920       92.06472
C         67.19690       68.39258       93.41064
O         66.65712       69.48524       93.47341
O         67.44672       67.71830       94.54911
H         70.27366       68.97827       92.79616
H         69.12628       67.11226       90.79766
H         66.96862       66.82858       91.96735
H         67.14252       68.47194       91.27570
N         69.64017       65.16614       92.34421
C         69.87492       64.05442       93.26308
C         70.87252       63.04093       92.68986
O         70.71729       62.68020       91.53363
C         68.52621       63.33738       93.47331
C         68.59897       62.42848       94.66987
C         68.66131       61.03555       94.52202
C         68.62877       62.99067       95.95963
C         68.76808       60.21758       95.65174
C         68.72436       62.17012       97.08411
C         68.79850       60.78402       96.93051
H         69.35122       64.93919       91.38090
H         70.20382       64.44096       94.24785
H         68.25536       62.78838       92.54400
H         67.71136       64.07028       93.66506
H         68.65089       60.58724       93.53664
H         68.58033       64.06560       96.09071
H         68.83230       59.14416       95.53613
H         68.74699       62.61103       98.07245
H         68.88135       60.15006       97.80308
N         71.86732       62.45910       93.44051
C         72.11437       62.69242       94.85086
C         72.80284       64.01777       95.11453
O         73.00868       64.33364       96.27504
C         72.95927       61.48243       95.26601
C         73.78006       61.23193       94.02002
C         72.73810       61.42106       92.91875
H         71.18390       62.65893       95.44456
H         73.52676       61.59427       96.21443
H         72.27706       60.60640       95.37463
H         74.52686       62.05408       93.94677
H         74.31485       60.25839       93.98348
H         73.24452       61.70705       91.97231
H         72.12867       60.50232       92.76584
N         73.16504       64.85355       94.09633
C         73.73301       66.17563       94.32040
C         75.01376       66.08802       95.14882
O         75.95422       65.44063       94.71331
C         73.94048       66.91027       92.96883
C         74.96313       66.25362       92.01692
C         74.98808       66.94733       90.68710
O         73.99312       66.95561       89.98173
O         76.11658       67.53772       90.25084
H         72.99802       64.56006       93.12694
H         72.96585       66.76459       94.86059
H         74.25549       67.95829       93.16568
H         72.94912       66.94518       92.46231
H         74.71519       65.18745       91.83514
H         75.97800       66.30906       92.45851
N         75.14204       66.67575       96.37440
C         74.09712       67.43969       97.02312
H         73.20408       66.80249       97.19507
H         74.45258       67.80280       98.01050
H         73.82194       68.31869       96.40331
H         76.03425       66.56680       96.88119
Ca        68.87602       76.06617       93.58419
O         71.56575       75.39102       94.58282
H         70.95889       75.55660       95.34789
H         71.98538       74.51784       94.78446
O         68.18980       73.48698       94.94971
H         67.24239       73.70231       95.14111
H         68.17936       73.10428       94.03638
O         70.48849       73.85655       91.44618
H         71.26714       74.30922       91.03445
H         70.87100       73.33651       92.19658

Ca 1.0



