%chk=apoCaM-CA-Ng.loop1.water2.frame1063.chk
%nprocshared=20
%mem=10GB
%nosave
#b3lyp/svp scf=(tight,noincore,xqc) Test 
#IOP(5/87=12) Density=Current Pop=(MK,readradii) iop(6/33=2) iop(6/42=6)

apoCaM-CA-Ng.loop1.water2.frame1063 

   0  1 
C          1.44187       61.14812       33.96969
C          0.88272       60.42944       35.16195
O          0.97563       60.96671       36.25694
H          2.53855       61.27944       34.08793
H          1.24709       60.59163       33.02997
H          0.96666       62.14914       33.89362
N          0.29658       59.20107       35.03220
C         -0.30302       58.48420       36.15562
C          0.69051       57.51968       36.78778
O          0.39746       56.34162       36.94425
C         -1.59624       57.76520       35.70781
C         -2.66593       58.69015       35.19282
O         -3.72145       58.22097       34.79892
O         -2.48703       60.02545       35.16779
H          0.25784       58.76656       34.09741
H         -0.56704       59.20350       36.95565
H         -2.02241       57.20585       36.56894
H         -1.34035       57.03500       34.90744
N          1.89803       57.97958       37.20850
C          2.86849       57.16804       37.92648
C          2.36490       56.82568       39.33263
O          2.35627       55.63898       39.62874
C          4.26670       57.82855       37.88782
C          4.78036       57.84478       36.42600
C          6.13576       58.53698       36.26347
C          6.60584       58.45410       34.79919
N          7.85149       59.19284       34.59956
H          2.14641       58.95656       37.00943
H          3.00981       56.20395       37.38300
H          4.98030       57.22479       38.49115
H          4.23028       58.85431       38.30911
H          4.05256       58.37047       35.77086
H          4.86862       56.79334       36.06894
H          6.89339       58.05265       36.91683
H          6.02740       59.60229       36.56002
H          5.82697       58.87701       34.12555
H          6.76076       57.38691       34.52013
H          8.15546       59.08893       33.60406
H          7.69649       60.20795       34.79847
H          8.60084       58.81840       35.22504
N          1.86375       57.71393       40.25430
C          1.69055       59.15790       40.09952
C          0.22408       59.52285       39.91619
O         -0.63826       58.66276       40.02022
C          2.35473       59.92907       41.26551
C          2.16152       59.37580       42.66713
O          0.97996       59.28503       43.31983
O          3.15950       59.01416       43.27027
H          1.50339       57.30631       41.13152
H          2.17525       59.50615       39.17191
H          2.07018       61.00176       41.23676
H          3.44994       59.88474       41.07291
N         -0.11256       60.78164       39.50143
C         -1.46564       61.14052       39.09888
C         -2.40134       61.37231       40.25484
O         -1.94876       61.58633       41.36562
H          0.63829       61.46871       39.33427
H         -1.86584       60.35525       38.42500
H         -1.44670       62.08661       38.51665
N         -3.74816       61.34509       40.04764
C         -4.74439       61.60112       41.09267
C         -5.78780       62.59080       40.57225
O         -5.74066       62.90325       39.38962
C         -5.34841       60.23633       41.50355
C         -4.23031       59.38408       42.03024
O         -3.50030       59.83747       43.06665
O         -3.89750       58.36668       41.44583
H         -4.08469       61.06833       39.11150
H         -4.25564       62.05993       41.97870
H         -5.82207       59.75221       40.62036
H         -6.10866       60.31636       42.29378
N         -6.77258       63.15794       41.33368
C         -6.97896       63.01384       42.76623
C         -5.91123       63.71306       43.56347
O         -5.74127       64.90905       43.37050
H         -7.44142       63.77513       40.84573
H         -7.11778       61.96339       43.05989
H         -7.92837       63.52927       43.02927
N         -5.18068       63.04846       44.50760
C         -4.20017       63.72420       45.35676
C         -2.79434       63.27152       45.02386
O         -2.61828       62.23447       44.40452
C         -4.54111       63.58076       46.86515
C         -4.51112       62.13484       47.38682
O         -5.78699       64.17140       47.14339
H         -5.32797       62.03549       44.62743
H         -4.21588       64.81349       45.13595
H         -3.77712       64.14432       47.44425
H         -6.49033       63.62401       46.70557
H         -3.50467       61.69281       47.24171
H         -4.73915       62.12507       48.47445
H         -5.26678       61.50354       46.87454
N         -1.74991       64.10359       45.30834
C         -0.36430       63.89629       44.89807
C          0.27179       62.73569       45.63743
O         -0.20777       61.61290       45.55374
C         -0.19739       63.73894       43.35261
C         -0.92940       64.88396       42.60123
C          1.30320       63.69729       42.98864
C         -0.78346       64.83528       41.07726
H         -1.95874       64.99382       45.78617
H          0.18767       64.82517       45.16986
H         -0.63601       62.77440       43.03704
H         -0.55981       65.87013       42.95467
H         -2.01559       64.81853       42.82671
H          1.82102       62.87040       43.51751
H          1.44927       63.50277       41.90763
H          1.79579       64.65626       43.25690
H         -1.40138       65.63643       40.62127
H          0.26686       65.01056       40.76873
H         -1.12258       63.86244       40.67553
N          1.43258       62.93915       46.31950
C          2.19562       61.85654       46.92639
C          1.53231       61.26979       48.17742
O          2.06186       60.30797       48.71152
C          3.65709       62.32560       47.20248
C          3.76459       63.39887       48.29472
O          4.22422       62.84360       46.02334
H          1.83897       63.88673       46.29943
H          2.27835       61.04331       46.16994
H          4.26756       61.45914       47.54348
H          4.28781       62.09744       45.37184
H          3.20089       64.31674       48.02979
H          3.38792       63.01183       49.26336
H          4.83086       63.68450       48.42697
N          0.39958       61.81349       48.72148
C         -0.20098       61.33229       49.96655
C         -0.78005       59.92995       49.82351
O         -1.73465       59.75813       49.07977
C         -1.33106       62.30324       50.41718
C         -1.99530       61.88337       51.73771
O         -0.84389       63.61752       50.52745
H         -0.01329       62.64516       48.28001
H          0.58820       61.34137       50.75150
H         -2.12093       62.30751       49.63293
H         -0.14118       63.62061       51.22852
H         -2.44763       60.87275       51.65444
H         -1.25115       61.87578       52.56157
H         -2.80655       62.59843       51.98913
N         -0.27270       58.89015       50.55243
C         -0.85528       57.55025       50.61222
C         -1.13867       56.99361       49.22588
O         -2.30104       56.83949       48.87125
C         -2.10883       57.52022       51.53117
C         -2.53599       56.05783       51.81497
C         -3.76340       55.94297       52.72567
C         -4.11099       54.45985       52.95491
N         -5.28876       54.31046       53.80795
H          0.56705       59.05827       51.12691
H         -0.12213       56.88446       51.12144
H         -2.94210       58.09911       51.07653
H         -1.85218       57.99179       52.50551
H         -1.68633       55.52621       52.29850
H         -2.77107       55.53380       50.86633
H         -4.62668       56.45287       52.24550
H         -3.55321       56.43003       53.70248
H         -3.24786       53.94331       53.43221
H         -4.30941       53.96855       51.97563
H         -5.10836       54.73159       54.74778
H         -6.11569       54.77076       53.36324
H         -5.49473       53.29176       53.92799
N         -0.11934       56.63666       48.39726
C         -0.36417       56.04346       47.08397
C          0.28983       56.84223       45.96700
O         -0.46281       57.36679       45.15910
C          0.00402       54.54410       47.04370
C         -0.81639       53.73524       48.06096
C         -0.49982       52.27133       47.96427
O          0.01154       51.61973       49.02586
O         -0.71359       51.66236       46.92783
H          0.84123       56.74852       48.74531
H         -1.45627       56.06320       46.86413
H          1.07429       54.36254       47.24270
H         -0.22001       54.16327       46.02272
H         -1.90305       53.87669       47.87314
H         -0.58783       54.08961       49.08958
N          1.63473       56.98850       45.77023
C          2.71314       56.46960       46.58421
H          3.37972       57.30701       46.87581
H          2.38938       55.97852       47.50868
H          3.29865       55.74073       45.98526
H          1.93262       57.51148       44.93650
Ca        -1.25388       59.54826       43.08953
O         -1.35305       56.81130       42.41734
H         -0.91738       56.68071       41.53969
H         -2.26323       56.44214       42.30157
O         -2.97315       59.30610       46.06968
H         -3.54327       59.17114       46.86801
H         -2.05139       59.35645       46.42721

Ca 1.0



