%chk=apoCaM-CA-Ng.loop4.water4.frame551.chk
%nprocshared=20
%mem=10GB
%nosave
#b3lyp/svp scf=(tight,noincore,xqc) Test 
#IOP(5/87=12) Density=Current Pop=(MK,readradii) iop(6/33=2) iop(6/42=6)

apoCaM-CA-Ng.loop4.water4.frame551 

   -3  1 
C         48.36690       17.45309       58.76202
C         47.12121       16.61845       58.71514
O         47.17467       15.46199       59.10279
H         49.15412       16.98487       58.13628
H         48.18198       18.48007       58.38211
H         48.72527       17.52412       59.80997
N         45.95346       17.14969       58.24832
C         44.67639       16.44307       58.13030
C         44.05389       16.05278       59.46582
O         42.97327       15.47634       59.44250
C         44.80127       15.16321       57.28071
C         45.70264       15.29179       56.09771
O         46.75130       14.44970       56.04807
O         45.47492       16.07949       55.19426
H         45.96653       18.12451       57.91144
H         43.97273       17.13296       57.61281
H         43.79345       14.81559       56.96486
H         45.23381       14.35727       57.90837
N         44.67943       16.26820       60.66160
C         44.14454       15.74564       61.91521
C         42.80229       16.40092       62.24302
O         42.54589       17.48460       61.73627
C         45.17794       15.86016       63.08619
C         45.49629       17.33288       63.44546
C         46.44623       15.04821       62.74815
C         46.45017       17.47090       64.63301
H         45.58120       16.75205       60.67907
H         43.96960       14.66180       61.72971
H         44.74411       15.39553       63.99409
H         44.54772       17.83903       63.72450
H         45.93515       17.87142       62.58078
H         46.16715       14.00394       62.51173
H         46.99483       15.47196       61.88271
H         47.14026       14.99922       63.61018
H         47.45407       17.06712       64.38941
H         46.57454       18.54497       64.88189
H         46.04307       16.94172       65.52066
N         41.83913       15.79583       63.00082
C         41.96409       14.46557       63.58729
C         41.35378       13.39661       62.70377
O         41.72474       12.24446       62.87255
C         41.46347       14.43928       65.04709
C         39.99686       14.74283       65.24401
O         39.49886       14.77514       66.49439
O         39.25120       14.95540       64.30100
H         40.93443       16.28345       63.08258
H         43.02737       14.18354       63.63450
H         42.05092       15.18677       65.62333
H         41.65938       13.43735       65.48118
N         40.47536       13.69275       61.70118
C         40.00549       12.70459       60.74729
C         39.31951       11.52958       61.41015
O         38.30927       11.70802       62.07499
H         40.14881       14.66065       61.57020
H         40.88155       12.35469       60.15869
H         39.30060       13.18189       60.03282
N         39.82683       10.27772       61.22903
C         39.23466        9.04704       61.75224
C         39.30720        8.88234       63.27847
O         38.87729        7.84054       63.75527
C         39.85420        7.82253       61.02175
C         41.34881        7.64242       61.14527
O         42.11567        8.51799       61.82104
O         41.88103        6.69814       60.58425
H         40.65024       10.19315       60.61408
H         38.15826        9.03123       61.47194
H         39.62842        7.92385       59.93687
H         39.35342        6.89677       61.37814
N         39.79358        9.84605       64.11734
C         39.85689        9.69032       65.56678
C         40.93690        8.73120       66.03456
O         41.05819        8.53845       67.23516
H         40.09016       10.74848       63.74074
H         38.86201        9.37302       65.94849
H         40.09716       10.67527       66.02294
N         41.78011        8.12379       65.15385
C         42.86331        7.21592       65.50404
C         43.93916        7.92709       66.31113
O         44.50067        7.35108       67.23303
C         42.32397        5.91697       66.14440
C         41.31562        5.22500       65.20889
C         40.69098        4.01888       65.85739
N         39.35089        3.95896       66.04839
O         41.39601        3.08466       66.20798
H         41.67790        8.31678       64.15492
H         43.36257        6.93088       64.54926
H         41.82950        6.15589       67.10922
H         43.16532        5.21904       66.35060
H         41.82501        4.91727       64.26990
H         40.50972        5.93958       64.94063
H         38.73774        4.73488       65.75651
H         38.91991        3.13330       66.48908
N         44.31023        9.18921       65.95241
C         45.45510        9.91335       66.49639
C         46.41625       10.30086       65.37170
O         47.40696       10.95950       65.65201
C         45.00222       11.17986       67.27895
C         44.22057       12.18068       66.41100
C         44.18085       10.79446       68.51555
H         43.76455        9.65984       65.21451
H         46.02545        9.27366       67.20651
H         45.91614       11.69682       67.64970
H         44.82311       12.50000       65.53460
H         43.26889       11.73805       66.05304
H         43.98033       13.08892       67.00401
H         44.77250       10.11854       69.16999
H         43.92797       11.70275       69.10350
H         43.23988       10.28205       68.22564
N         46.18848        9.92456       64.07657
C         47.02037       10.31339       62.94988
C         47.69056        9.04842       62.40548
O         47.68807        8.03910       63.09547
C         46.10231       11.03081       61.92410
C         46.81925       11.87311       60.88729
N         46.12640       12.40350       59.85643
O         48.01786       12.09973       60.97937
H         45.39106        9.31995       63.83980
H         47.80789       11.02792       63.27231
H         45.42770       11.73560       62.45714
H         45.45954       10.26785       61.43535
H         45.11504       12.23582       59.75606
H         46.61330       12.96418       59.14370
N         48.26615        9.01502       61.17289
C         48.97641        7.86353       60.63856
C         50.33670        8.31251       60.12611
O         50.62799        9.49939       60.15085
C         48.14201        7.17099       59.53385
C         47.72302        8.06674       58.38923
C         48.35625        7.96508       57.14091
C         46.66717        8.98368       58.54658
C         47.95183        8.77701       56.07675
C         46.26331        9.79217       57.48049
C         46.90639        9.69529       56.24368
O         46.50972       10.48226       55.22339
H         48.20464        9.82661       60.55920
H         49.15014        7.10624       61.43338
H         47.22279        6.72605       59.97500
H         48.73284        6.31497       59.14540
H         49.16652        7.26216       56.99300
H         46.14458        9.06239       59.48993
H         48.44661        8.68990       55.11998
H         45.44569       10.48982       57.61435
H         46.93277       10.44739       54.35345
N         51.22799        7.40077       59.64269
C         52.51872        7.78659       59.08793
C         52.56899        7.31995       57.65031
O         52.65880        6.11870       57.43817
C         53.66182        7.15195       59.90498
C         53.67084        7.65437       61.35508
C         54.78120        7.01733       62.13908
O         55.74923        7.78076       62.68039
O         54.80538        5.80731       62.30122
H         50.97974        6.40062       59.65300
H         52.65526        8.88465       59.12250
H         54.63535        7.40649       59.43055
H         53.54788        6.04387       59.90151
H         52.70686        7.41530       61.85370
H         53.80498        8.75776       61.35431
N         52.44415        8.15816       56.58082
C         52.14526        9.59052       56.63327
C         53.42125       10.38940       56.82167
O         54.34484       10.20765       56.03882
C         51.48174        9.97609       55.29542
C         50.85551       11.38751       55.19330
C         50.34315       11.61413       53.77701
O         50.51877       10.75870       52.92256
O         49.72004       12.74617       53.39132
H         52.42844        7.70049       55.65402
H         51.38740        9.79042       57.42272
H         50.65738        9.25616       55.11465
H         52.23569        9.84037       54.48870
H         51.61798       12.16357       55.41736
H         50.02761       11.48032       55.93173
N         53.53304       11.31805       57.81131
C         54.71811       12.13577       57.99978
H         55.52772       11.88930       57.27931
H         54.45360       13.20566       57.86289
H         55.11256       11.98985       59.02621
H         52.73698       11.47813       58.44601
Ca        48.31860       14.10777       54.49850
O         51.65722       15.05690       53.83642
H         51.88645       15.42803       52.94744
H         52.53109       14.84142       54.24914
O         47.69164       17.47897       53.19054
H         46.72614       17.27453       53.26307
H         47.75180       18.44916       53.37847
O         49.84342       14.49105       57.16714
H         50.44618       14.29462       57.92709
H         49.07261       13.88473       57.30169
O         48.52434       14.56688       51.47720
H         47.85051       13.87556       51.69878
H         48.18497       14.98676       50.64829

Ca 1.0



