%chk=apoCaM-CA-Ng.loop3.water3.frame732.chk
%nprocshared=20
%mem=10GB
%nosave
#b3lyp/svp scf=(tight,noincore,xqc) Test 
#IOP(5/87=12) Density=Current Pop=(MK,readradii) iop(6/33=2) iop(6/42=6)

apoCaM-CA-Ng.loop3.water3.frame732 

   0  1 
C         92.46590        1.76951      -19.04198
C         93.50093        0.96300      -19.76789
O         93.96786        1.38850      -20.81529
H         91.53181        1.17799      -18.94422
H         92.84082        2.02873      -18.02920
H         92.24126        2.70931      -19.58993
N         93.92261       -0.22377      -19.24881
C         94.95707       -1.04275      -19.88274
C         94.43806       -1.56931      -21.23712
O         93.24004       -1.48057      -21.47196
C         95.33170       -2.19594      -18.90369
C         96.71270       -2.77591      -19.05678
O         97.53850       -2.82749      -17.99689
O         97.09323       -3.23811      -20.10807
H         93.51297       -0.52425      -18.34972
H         95.84054       -0.38042      -20.01758
H         94.55575       -2.99025      -18.95755
H         95.32023       -1.80028      -17.86345
N         95.26436       -2.11912      -22.17694
C         94.78950       -2.66853      -23.45685
C         95.05845       -4.16827      -23.59617
O         94.59821       -4.75588      -24.56556
C         95.46459       -1.92654      -24.62473
C         94.98655       -0.47621      -24.75201
C         95.71227        0.22232      -25.90906
C         95.11433        1.60528      -26.19009
N         95.83318        2.27122      -27.27611
H         96.27462       -2.13083      -21.99485
H         93.68653       -2.55951      -23.54504
H         95.21180       -2.43580      -25.58119
H         96.56897       -1.96718      -24.49437
H         95.16637        0.08769      -23.81064
H         93.89296       -0.49433      -24.95557
H         95.61712       -0.38851      -26.83381
H         96.79142        0.31668      -25.65486
H         95.16178        2.23552      -25.27509
H         94.04607        1.48370      -26.48010
H         95.37315        3.18741      -27.48075
H         96.82502        2.44473      -26.99307
H         95.81178        1.68264      -28.14086
N         95.79412       -4.84887      -22.68151
C         96.08165       -6.27444      -22.71224
C         95.56707       -6.92064      -21.43090
O         94.80006       -7.86855      -21.52662
C         97.58819       -6.51836      -23.00278
C         98.56509       -5.55549      -22.36646
O         98.70190       -5.45080      -21.03714
O         99.24647       -4.83862      -23.08214
H         96.20038       -4.32948      -21.90861
H         95.54685       -6.78222      -23.54768
H         97.71494       -6.38064      -24.10046
H         97.85606       -7.57331      -22.77895
N         95.89881       -6.43432      -20.20193
C         95.40941       -6.97581      -18.94538
C         96.53813       -7.39333      -18.02720
O         96.24559       -7.78621      -16.90632
H         96.50141       -5.61093      -20.13302
H         94.73855       -7.84782      -19.10268
H         94.82332       -6.18058      -18.43698
N         97.84373       -7.36053      -18.42740
C         98.95988       -7.78259      -17.59343
C        100.01129       -6.68873      -17.46000
O         99.95044       -5.68688      -18.15641
C         99.58064       -9.04798      -18.23269
C        100.11689       -8.78711      -19.62968
N         99.55078       -9.36955      -20.71273
O        101.06550       -8.03218      -19.78370
H         98.06969       -7.07529      -19.38580
H         98.60012       -8.04039      -16.57344
H         98.78531       -9.82384      -18.27846
H        100.40081       -9.45070      -17.60145
H         98.74154       -9.99914      -20.61597
H         99.91373       -9.17443      -21.65820
N        101.04562       -6.86187      -16.59553
C        102.23608       -6.02940      -16.54649
C        102.00847       -4.54360      -16.33229
O        101.36837       -4.15352      -15.36707
H        101.03241       -7.68925      -15.97879
H        102.80726       -6.18808      -17.48586
H        102.87783       -6.39909      -15.71758
N        102.64067       -3.65797      -17.15968
C        102.70467       -2.21087      -16.94334
C        101.39301       -1.49161      -17.26411
O        100.43354       -2.13456      -17.65652
C        103.85833       -1.61723      -17.80448
C        105.21645       -2.20528      -17.47915
C        105.74488       -2.11594      -16.17796
C        105.98262       -2.82217      -18.48375
C        107.00956       -2.63771      -15.88836
C        107.25096       -3.33633      -18.19294
C        107.76871       -3.24708      -16.89683
O        108.99449       -3.74443      -16.63414
H        103.22343       -4.05152      -17.91423
H        102.95125       -2.01964      -15.87709
H        103.95667       -0.52785      -17.63513
H        103.61832       -1.76512      -18.88079
H        105.18318       -1.64032      -15.38489
H        105.60578       -2.89592      -19.49607
H        107.40065       -2.56214      -14.88127
H        107.83476       -3.80059      -18.97797
H        109.39168       -3.69744      -15.75256
N        101.33350       -0.12488      -17.14246
C        100.22171        0.78678      -17.44127
C         99.67109        0.66545      -18.85811
O         99.34717       -0.42996      -19.29197
C         99.10221        0.84308      -16.34968
C         98.15820       -0.37902      -16.37044
C         98.30174        2.15830      -16.51527
C         97.04626       -0.34279      -15.32125
H        102.18937        0.35046      -16.82274
H        100.67860        1.80079      -17.36572
H         99.60256        0.90093      -15.35758
H         98.74943       -1.29238      -16.17731
H         97.66857       -0.44390      -17.36339
H         97.73892        2.17031      -17.47208
H         97.59078        2.31112      -15.68034
H         98.98471        3.03496      -16.49460
H         97.47647       -0.26203      -14.30189
H         96.34640        0.49861      -15.50200
H         96.45071       -1.27734      -15.39042
N         99.42367        1.79042      -19.59050
C         98.74682        1.76578      -20.88297
C         99.55749        2.41837      -21.98994
O         99.08829        2.40468      -23.12077
C         97.38032        2.45670      -20.74282
O         97.54751        3.80022      -20.37865
H         99.64883        2.70926      -19.17876
H         98.55176        0.71991      -21.19708
H         96.79529        1.92631      -19.95797
H         96.82835        2.39575      -21.70759
H         96.63454        4.16416      -20.24118
N        100.75867        3.02908      -21.76334
C        101.49180        3.69561      -22.83469
C        101.99887        2.69404      -23.86709
O        102.00093        1.50645      -23.57240
C        102.69253        4.45069      -22.24647
H        101.14274        3.06632      -20.80859
H        100.79071        4.42129      -23.29810
H        102.34406        5.20356      -21.50762
H        103.37967        3.74350      -21.73334
H        103.26798        4.97102      -23.03427
N        102.48784        3.05774      -25.09175
C        102.44624        4.39828      -25.67114
C        103.85250        4.94122      -25.86674
O        104.72409        4.16970      -26.24222
C        101.71601        4.33659      -27.01337
H        102.88186        2.30899      -25.68430
H        101.87077        5.07838      -25.02757
H        100.68289        3.95670      -26.86234
H        101.65514        5.34991      -27.46486
H        102.24591        3.66143      -27.71919
N        104.19550        6.24072      -25.61006
C        103.25835        7.31836      -25.30422
C        103.24897        7.58201      -23.81645
O        102.18968        7.48397      -23.21229
C        103.62897        8.57918      -26.11435
C        102.60710        9.71261      -25.92252
C        102.99331       10.93237      -26.70811
O        103.09150       10.87876      -27.92380
O        103.22044       12.09810      -26.07286
H        105.19418        6.49293      -25.68436
H        102.23235        7.05093      -25.62885
H        103.66028        8.31035      -27.19369
H        104.64013        8.93484      -25.81741
H        102.54567        9.98632      -24.84748
H        101.60298        9.37246      -26.25739
N        104.39551        7.90540      -23.15636
C        104.45087        8.13977      -21.72775
H        104.82799        9.16561      -21.53764
H        103.45848        8.03417      -21.24049
H        105.14388        7.40683      -21.26434
H        105.27847        7.97739      -23.68296
Ca        99.99619       -3.78060      -20.22391
O         98.94936       -1.64892      -22.34181
H         99.28424       -0.90484      -22.90208
H         98.57719       -2.29624      -22.99048
O        102.66023       -5.03014      -20.82055
H        101.88280       -5.60183      -21.04246
H        103.01110       -5.40868      -19.97623
O        101.97408       -1.82125      -21.36316
H        102.02035       -2.14788      -22.29693
H        101.91539       -0.83642      -21.44504

Ca 1.0



