%chk=apoCaM-CA-Ng.loop2.water4.frame353.chk
%nprocshared=20
%mem=10GB
%nosave
#b3lyp/svp scf=(tight,noincore,xqc) Test 
#IOP(5/87=12) Density=Current Pop=(MK,readradii) iop(6/33=2) iop(6/42=6)

apoCaM-CA-Ng.loop2.water4.frame353 

   -2  1 
C         68.25251      101.76035       40.75523
C         67.56345      103.08808       40.90168
O         67.12079      103.40154       41.99759
H         69.13012      101.72314       41.43401
H         67.56066      100.93719       41.02680
H         68.60495      101.59748       39.71582
N         67.45666      103.93864       39.84070
C         66.84698      105.25980       39.95093
C         65.36425      105.13303       40.25660
O         64.62755      104.63808       39.41534
C         67.06315      106.04985       38.63914
C         66.56352      107.47172       38.68009
O         65.99221      107.98515       39.78740
O         66.68784      108.17667       37.69177
H         67.86560      103.65027       38.93805
H         67.37098      105.80698       40.76652
H         66.56027      105.51658       37.80180
H         68.15279      106.08291       38.42062
N         64.86015      105.55299       41.45353
C         63.44142      105.47095       41.79188
C         62.93750      104.04780       41.62311
O         63.50242      103.13209       42.20282
C         63.19482      105.97429       43.21683
H         65.51493      105.93783       42.15214
H         62.87856      106.14471       41.10782
H         62.10813      105.94470       43.44763
H         63.74165      105.35300       43.95682
H         63.53854      107.02775       43.30775
N         61.87940      103.80710       40.79970
C         61.41214      102.48444       40.39478
C         60.06576      102.13916       41.02806
O         59.57903      101.04322       40.78332
C         61.34116      102.50525       38.83979
C         60.69957      101.30848       38.18866
O         59.64485      101.45150       37.59095
O         61.23198      100.07814       38.25903
H         61.38613      104.62045       40.39811
H         62.11779      101.69429       40.73032
H         62.35844      102.65515       38.42249
H         60.72700      103.38738       38.54913
N         59.40148      102.99526       41.85800
C         58.09132      102.68362       42.40528
C         58.06128      101.56700       43.43628
O         56.95872      101.24550       43.85682
H         59.78713      103.92817       42.06022
H         57.41369      102.42297       41.56188
H         57.67638      103.58999       42.89654
N         59.18308      100.95682       43.93490
C         59.10117       99.90253       44.95077
C         60.47788       99.55263       45.50819
O         61.33185       99.09614       44.75979
C         58.44113       98.63030       44.36564
C         58.27666       97.55644       45.41238
N         58.88525       96.35626       45.27495
O         57.58380       97.77394       46.39535
H         60.11194      101.27885       43.62629
H         58.47508      100.28403       45.78847
H         59.06089       98.25778       43.52044
H         57.43323       98.85393       43.96230
H         59.47509       96.15026       44.45540
H         58.76749       95.63029       45.99636
N         60.75162       99.73713       46.83444
C         62.03379       99.40669       47.44325
C         62.27244       97.91359       47.54715
O         61.40225       97.13285       47.18737
H         60.03198      100.16010       47.44030
H         62.05376       99.80086       48.48256
H         62.84870       99.89879       46.87131
N         63.45888       97.45259       48.04818
C         63.76256       96.02947       48.22238
C         64.77051       95.52845       47.19653
O         64.98327       94.32390       47.13679
C         64.23182       95.72964       49.67241
C         65.60622       96.33138       50.02449
O         63.25906       96.13968       50.60083
H         64.18088       98.14513       48.29552
H         62.83828       95.43825       48.04246
H         64.34284       94.62778       49.77605
H         63.29452       97.13039       50.66207
H         66.38649       95.92569       49.35284
H         65.60549       97.43769       49.94620
H         65.88492       96.05424       51.06274
N         65.40369       96.37690       46.33829
C         66.26811       95.94359       45.24599
C         65.62688       96.37662       43.94360
O         64.67330       97.14787       43.96395
C         67.70282       96.53578       45.46553
C         68.40271       95.88968       46.68953
C         68.63739       96.48463       44.24244
C         68.71874       94.39339       46.53797
H         65.24361       97.39204       46.41872
H         66.30869       94.83710       45.18970
H         67.57892       97.62054       45.68556
H         67.77246       96.02772       47.58721
H         69.36046       96.42231       46.87575
H         68.80927       95.44933       43.88859
H         68.22282       97.09126       43.41316
H         69.61763       96.94188       44.49588
H         69.39605       94.20877       45.67930
H         69.23236       94.03168       47.45222
H         67.79997       93.78761       46.41140
N         66.07163       95.86997       42.76108
C         65.51109       96.24958       41.47953
C         64.85538       95.04790       40.78548
O         64.44914       95.16794       39.63997
C         66.62053       96.97003       40.67016
C         66.05754       97.85208       39.58855
O         64.73305       97.83615       39.36556
O         66.77493       98.64162       38.99585
H         66.84052       95.18249       42.75954
H         64.70593       96.99915       41.63846
H         67.39290       96.26705       40.30016
H         67.12115       97.67915       41.36510
N         64.62314       93.88281       41.46705
C         63.91155       92.74084       40.90108
C         64.78656       92.03735       39.87824
O         65.89561       91.66537       40.23857
C         63.51673       91.71309       41.99170
C         62.49626       92.24793       42.97703
C         62.88309       93.00613       44.09953
C         61.13030       91.96539       42.78706
C         61.92294       93.47368       45.00283
C         60.17479       92.43897       43.69066
C         60.57118       93.19059       44.79787
H         64.91207       93.81764       42.44798
H         62.95428       93.08724       40.45877
H         64.39505       91.29721       42.53222
H         63.04887       90.85528       41.45728
H         63.92235       93.22582       44.29606
H         60.80187       91.38275       41.93523
H         62.22727       94.05115       45.86613
H         59.12621       92.22036       43.53377
H         59.83057       93.54846       45.49923
N         64.37152       91.76897       38.59967
C         65.18923       91.03780       37.64504
C         66.31454       91.89178       37.08935
O         67.20887       91.34027       36.46324
C         64.18526       90.62292       36.56579
C         63.22945       91.80070       36.56056
C         63.06775       92.08672       38.05385
H         65.62184       90.12384       38.11090
H         64.62785       90.34778       35.58416
H         63.60668       89.75034       36.94610
H         63.76701       92.65878       36.09645
H         62.27477       91.64858       36.01441
H         62.78179       93.15217       38.18400
H         62.31779       91.41744       38.53096
N         66.32780       93.24430       37.25300
C         67.41897       94.08665       36.78983
C         68.64699       93.80187       37.62635
O         69.68262       93.45779       37.07421
C         67.03997       95.57796       36.89881
C         65.87628       95.93884       35.95945
C         65.50436       97.38604       36.08427
O         66.32108       98.25857       35.83530
O         64.25710       97.72729       36.45888
H         65.53164       93.69855       37.72030
H         67.63168       93.88239       35.71562
H         67.92130       96.19667       36.61885
H         66.76168       95.81427       37.94468
H         64.98268       95.32453       36.19900
H         66.16815       95.73369       34.90694
N         68.59166       93.91481       38.98230
C         69.73570       93.66650       39.82951
H         70.55123       94.37778       39.58021
H         69.45291       93.80922       40.89471
H         70.09241       92.62409       39.69145
H         67.70226       94.17569       39.43234
Ca        63.30991       99.47694       38.83381
O         64.59282      102.73722       36.82916
H         65.00857      102.84756       35.93772
H         64.21040      103.62700       37.03066
O         65.07119      101.24111       40.47358
H         64.45991      100.88910       41.16802
H         64.54806      101.93294       39.99711
O         67.18830      101.20321       37.11172
H         67.44148      102.01338       36.60183
H         68.05026      100.76643       37.32634
O         64.09626      100.37996       34.95450
H         64.79673      100.65052       34.30911
H         63.64342       99.61300       34.52253

Ca 1.0



