%chk=apoCaM-CA-Ng.loop2.water3.frame51.chk
%nprocshared=20
%mem=10GB
%nosave
#b3lyp/svp scf=(tight,noincore,xqc) Test 
#IOP(5/87=12) Density=Current Pop=(MK,readradii) iop(6/33=2) iop(6/42=6)

apoCaM-CA-Ng.loop2.water3.frame51 

   -2  1 
C         58.90035       66.39893       73.27941
C         60.05416       66.53561       74.23047
O         61.14408       66.10110       73.88612
H         57.96774       66.82419       73.70525
H         59.13366       66.93265       72.33370
H         58.72977       65.32498       73.05390
N         59.89012       67.13368       75.44768
C         60.97970       67.31144       76.40529
C         60.73665       66.56325       77.71462
O         61.69743       66.37290       78.44689
C         61.16836       68.81919       76.66255
C         62.32070       69.12281       77.57789
O         62.10306       69.75490       78.74716
O         63.45663       68.80412       77.26527
H         58.95767       67.50090       75.69060
H         61.91962       66.90165       75.97346
H         60.23186       69.22665       77.10490
H         61.34531       69.33746       75.69532
N         59.49939       66.11608       78.08603
C         59.22251       65.37129       79.31095
C         59.92005       64.02762       79.27133
O         60.65597       63.67319       80.18219
C         59.54811       66.19780       80.56599
H         58.68953       66.29589       77.47850
H         58.13025       65.15894       79.33771
H         58.98160       67.15250       80.54446
H         59.25285       65.63528       81.47703
H         60.62975       66.42932       80.64262
N         59.71694       63.22926       78.18850
C         60.29660       61.91086       77.98563
C         61.82072       61.96046       78.04940
O         62.42229       61.08352       78.65811
C         59.72141       60.88157       78.98958
C         58.22278       60.94384       79.14086
O         57.75392       61.22466       80.23228
O         57.36945       60.71292       78.12602
H         59.11527       63.58596       77.42938
H         60.00407       61.59106       76.96057
H         60.15568       61.08947       79.99255
H         60.02969       59.85651       78.69406
N         62.52207       62.98368       77.47420
C         63.97631       63.03403       77.52450
C         64.60840       61.95977       76.66297
O         65.79911       61.72084       76.80612
H         62.01869       63.75982       77.02038
H         64.29353       62.91011       78.58516
H         64.35152       64.01918       77.17616
N         63.87176       61.27155       75.74144
C         64.38962       60.14900       74.96895
C         65.52054       60.50744       74.01313
O         66.12214       59.57308       73.50182
C         63.23992       59.47662       74.18539
C         62.15867       58.97686       75.11569
N         62.42117       58.01204       76.02665
O         61.03522       59.44958       75.04789
H         62.87936       61.51553       75.61834
H         64.80083       59.41361       75.69531
H         63.61736       58.61335       73.59736
H         62.81260       60.21999       73.47408
H         63.35870       57.59218       76.09732
H         61.68126       57.67834       76.66072
N         65.90652       61.79230       73.74389
C         67.07511       62.10366       72.92805
C         66.92918       61.72922       71.45996
O         66.60030       60.59359       71.15317
H         65.41170       62.58081       74.18509
H         67.94786       61.56249       73.35276
H         67.29871       63.18979       73.00629
N         67.25969       62.62804       70.48560
C         67.26746       62.26798       69.06284
C         65.86463       62.14217       68.47468
O         65.75831       61.71187       67.33002
C         68.14408       63.24061       68.22359
C         67.62499       64.68519       68.16236
O         69.47880       63.21110       68.66809
H         67.61267       63.54963       70.77691
H         67.76423       61.27546       68.97431
H         68.15217       62.86565       67.17607
H         69.53229       63.69883       69.53020
H         66.61471       64.70889       67.71674
H         67.58932       65.15388       69.16657
H         68.29466       65.29213       67.51705
N         64.74908       62.49990       69.17013
C         63.38353       62.37073       68.66095
C         62.58695       61.44336       69.55213
O         63.10042       61.03823       70.59440
C         62.69001       63.76754       68.55628
C         62.70819       64.52805       69.91578
C         63.34403       64.58823       67.43487
C         61.95096       65.85532       69.90482
H         64.86347       62.87071       70.12534
H         63.38594       61.89904       67.65206
H         61.63178       63.60552       68.25529
H         63.75123       64.75113       70.22395
H         62.24129       63.88862       70.69530
H         62.80254       65.53953       67.26314
H         64.39618       64.81721       67.68134
H         63.31118       64.02169       66.47963
H         62.41672       66.57920       69.20584
H         60.88902       65.69389       69.62767
H         61.99148       66.30447       70.92044
N         61.32872       61.03525       69.21091
C         60.54736       60.18890       70.10146
C         59.38277       59.50266       69.38051
O         58.26519       59.52022       69.87092
C         60.11278       61.06216       71.31085
C         59.52114       60.33597       72.47497
O         59.17734       61.05027       73.56262
O         59.38500       59.12315       72.47512
H         60.93527       61.31630       68.29653
H         61.21027       59.35930       70.43671
H         59.39529       61.83504       70.95650
H         60.99318       61.59489       71.72379
N         59.60604       58.83694       68.20571
C         58.61296       58.00595       67.51673
C         57.28766       58.73487       67.29421
O         57.30918       59.79371       66.68431
C         59.16069       57.56535       66.13719
C         58.19987       56.63704       65.42993
C         58.03073       55.31599       65.87701
C         57.45030       57.09062       64.33018
C         57.12315       54.46544       65.23815
C         56.53640       56.24002       63.70078
C         56.37344       54.92838       64.15372
H         60.55151       58.89529       67.79857
H         58.45946       57.10479       68.14177
H         60.14758       57.06252       66.22894
H         59.31753       58.48549       65.53081
H         58.60083       54.94696       66.72050
H         57.55647       58.10744       63.97317
H         56.99746       53.44872       65.58704
H         55.95108       56.59939       62.86421
H         55.66555       54.27139       63.66514
N         56.08530       58.21568       67.70948
C         54.79310       58.86877       67.53229
C         54.74925       60.25582       68.13685
O         54.26544       61.18001       67.49955
C         53.81829       57.95756       68.29791
C         54.44322       56.60212       68.10105
C         55.91746       56.91456       68.33197
H         54.53632       58.88479       66.44866
H         53.87317       58.15694       69.39301
H         52.75729       58.05088       67.98159
H         54.03677       55.78871       68.73888
H         54.30363       56.32197       67.03063
H         56.17654       56.99598       69.41039
H         56.49440       56.10510       67.84908
N         55.24544       60.45318       69.39093
C         55.17540       61.71506       70.12208
C         55.91775       62.87000       69.44967
O         55.80038       63.98199       69.94660
C         55.73634       61.52364       71.55158
C         54.93830       60.49518       72.37613
C         55.53312       60.35646       73.74374
O         54.88437       60.67290       74.72765
O         56.79430       59.91153       73.89822
H         55.66599       59.63842       69.85863
H         54.10405       62.00615       70.19702
H         55.69929       62.49412       72.09440
H         56.80088       61.20827       71.48041
H         54.93516       59.49160       71.90584
H         53.88613       60.84468       72.45905
N         56.68871       62.70585       68.33664
C         57.36943       63.79382       67.66339
H         58.46093       63.59337       67.65022
H         57.00412       63.85910       66.61635
H         57.19538       64.77480       68.15253
H         56.81476       61.77520       67.93189
Ca        57.64848       60.12866       75.97314
O         55.90289       57.66722       76.87480
H         55.94144       57.09348       77.68081
H         55.56355       58.53651       77.20590
O         59.06335       57.49870       77.56626
H         58.75910       56.61106       77.25129
H         59.72917       57.29550       78.27039
O         58.49773       56.68095       74.34357
H         58.50355       55.78704       74.76933
H         59.09630       56.58460       73.56090

Ca 1.0



