%chk=apoCaM-CA-Ng.loop2.water4.frame1237.chk
%nprocshared=20
%mem=10GB
%nosave
#b3lyp/svp scf=(tight,noincore,xqc) Test 
#IOP(5/87=12) Density=Current Pop=(MK,readradii) iop(6/33=2) iop(6/42=6)

apoCaM-CA-Ng.loop2.water4.frame1237 

   -2  1 
C         64.28417       38.55882       24.24939
C         64.01135       37.16293       23.74174
O         63.79378       37.04917       22.54430
H         65.16019       38.96805       23.70286
H         63.40517       39.20166       24.03574
H         64.51251       38.65320       25.32153
N         64.00993       36.03123       24.51044
C         64.21861       35.94817       25.95528
C         63.02303       35.27499       26.62339
O         62.04511       34.98465       25.94682
C         65.56935       35.26173       26.25690
C         65.65077       33.81823       25.86711
O         65.54580       33.47798       24.69997
O         65.89837       32.89480       26.81516
H         63.84228       35.14028       24.01700
H         64.29833       36.94397       26.41595
H         65.77684       35.33419       27.34494
H         66.37944       35.81898       25.73851
N         63.02682       35.02220       27.96708
C         61.89257       34.49994       28.72885
C         61.40696       33.10530       28.32746
O         60.45036       32.65488       28.94387
C         60.73194       35.50782       28.67649
H         63.86690       35.26616       28.51079
H         62.20416       34.43290       29.79542
H         59.90463       35.18499       29.34392
H         61.08174       36.50313       29.02513
H         60.32602       35.61300       27.64961
N         61.97478       32.36216       27.32887
C         61.43095       31.07585       26.89028
C         62.43243       29.95409       27.06615
O         63.47224       30.17730       27.67129
C         60.85515       31.23184       25.46209
C         61.72748       31.58576       24.27277
O         61.14856       31.88953       23.24207
O         63.07824       31.56318       24.23344
H         62.79607       32.71870       26.82346
H         60.55301       30.78599       27.50862
H         60.10902       32.05348       25.54847
H         60.27815       30.32476       25.18563
N         62.17899       28.70820       26.56921
C         63.13591       27.61649       26.63102
C         63.58336       27.28369       25.23160
O         64.09616       28.16802       24.56144
H         61.29287       28.52946       26.07521
H         62.67043       26.74237       27.13445
H         64.04015       27.89758       27.21182
N         63.43915       26.03230       24.71130
C         63.87593       25.71859       23.34952
C         63.02571       26.46449       22.33385
O         61.99780       27.01764       22.70330
C         63.76314       24.20547       23.05318
C         64.68780       23.35916       23.89732
N         65.62308       22.57342       23.31271
O         64.58350       23.36347       25.11444
H         63.02515       25.29606       25.30215
H         64.93912       26.03116       23.23802
H         64.00933       24.02927       21.98378
H         62.71376       23.87429       23.21357
H         65.72479       22.54060       22.28770
H         66.24557       21.98627       23.88702
N         63.39048       26.49980       21.01869
C         62.55153       27.09895       19.99243
C         63.22194       28.30508       19.37433
O         63.70208       29.13325       20.13441
H         64.28517       26.07210       20.73101
H         61.59116       27.45030       20.41723
H         62.31700       26.30042       19.27017
N         63.30173       28.53577       18.03031
C         62.67690       27.74092       16.97620
C         63.72649       27.01660       16.16591
O         63.57453       25.81674       15.97938
C         61.77678       28.61239       16.06119
C         60.55584       29.15985       16.81050
O         62.51027       29.67137       15.50141
H         63.82467       29.37474       17.73214
H         61.99469       26.96827       17.37108
H         61.39472       27.94762       15.24839
H         62.03289       29.94641       14.67455
H         59.95486       28.32203       17.22629
H         60.86206       29.83298       17.63736
H         59.90687       29.72639       16.10784
N         64.80974       27.66472       15.64509
C         65.75850       27.01631       14.74273
C         67.13686       26.86789       15.38442
O         67.59363       27.82221       15.99822
C         65.81832       27.75072       13.37577
C         66.35499       29.20419       13.48602
C         64.42345       27.70113       12.72175
C         66.53871       29.88450       12.13065
H         64.95276       28.65808       15.87367
H         65.37229       26.01439       14.52012
H         66.51651       27.17240       12.72963
H         67.35547       29.19234       13.96433
H         65.67797       29.83034       14.10430
H         64.44434       28.09628       11.68847
H         64.06951       26.64965       12.65695
H         63.68737       28.28329       13.31565
H         67.23000       29.29070       11.49576
H         65.56980       30.01352       11.60876
H         66.97405       30.89428       12.28347
N         67.87157       25.70907       15.34252
C         67.52124       24.49155       14.60847
C         68.69017       23.97652       13.77436
O         69.75102       23.69988       14.31558
C         66.96151       23.41717       15.55883
C         67.90162       22.98117       16.64680
O         68.31652       23.85648       17.58201
O         68.25622       21.81556       16.71484
H         68.75158       25.69118       15.88126
H         66.70943       24.67645       13.89089
H         66.66835       22.53636       14.94447
H         66.03829       23.81248       16.03656
N         68.52089       23.77554       12.43368
C         69.51300       23.17171       11.54797
C         69.31065       23.71618       10.13195
O         68.18422       23.65295        9.65639
C         69.27937       21.64324       11.49962
C         70.25379       20.95440       10.56597
C         69.84938       20.59363        9.26790
C         71.57285       20.68343       10.97082
C         70.74911       19.98438        8.38888
C         72.46612       20.05809       10.09188
C         72.05546       19.71336        8.80107
H         67.58040       23.93907       12.04384
H         70.53889       23.35258       11.93073
H         68.23945       21.46424       11.14718
H         69.35129       21.18550       12.51055
H         68.84293       20.80317        8.92852
H         71.90659       20.94843       11.96606
H         70.43313       19.72427        7.38669
H         73.47866       19.84263       10.40851
H         72.74883       19.23721        8.11917
N         70.32734       24.18892        9.34750
C         71.73742       24.20571        9.69078
C         72.15230       25.47374       10.42314
O         73.33661       25.60223       10.69832
C         72.40422       24.12873        8.31058
C         71.48713       25.00408        7.47649
C         70.11677       24.54014        7.95412
H         72.05164       23.31596       10.27308
H         73.48112       24.39945        8.28392
H         72.29942       23.08574        7.92920
H         71.64004       26.05795        7.80053
H         71.62905       24.94671        6.37645
H         69.35685       25.33869        7.81225
H         69.80455       23.61859        7.41283
N         71.25994       26.45695       10.75238
C         71.65654       27.70291       11.40706
C         71.32502       28.89301       10.51259
O         70.63206       28.70746        9.52164
C         70.91450       27.82154       12.76094
C         71.24542       26.67783       13.73755
C         72.66025       26.67457       14.25908
O         73.46282       27.53759       13.94107
O         73.03898       25.70954       15.11772
H         70.26218       26.33895       10.52435
H         72.75297       27.70912       11.55939
H         69.82079       27.79280       12.55539
H         71.12250       28.78669       13.26611
H         71.04117       25.70625       13.24379
H         70.57327       26.76711       14.61608
N         71.78114       30.15930       10.75178
C         72.68836       30.54858       11.81470
H         73.60254       30.98956       11.36403
H         72.20317       31.31173       12.45690
H         73.01493       29.70890       12.45161
H         71.49212       30.90886       10.10412
Ca        64.78921       30.75697       25.45950
O         68.00403       31.45305       24.69875
H         68.60915       31.33307       23.92430
H         68.48352       32.08150       25.29486
O         66.99128       28.45673       24.46310
H         67.81990       28.33569       23.93547
H         67.06058       27.79331       25.19489
O         65.82380       30.73630       22.47515
H         65.17422       30.05701       22.16520
H         66.66789       30.50129       22.01418
O         66.88809       29.70919       27.45339
H         66.38156       29.15056       28.09499
H         67.32128       30.40171       28.01281

Ca 1.0



