%chk=apoCaM-CA-Ng.loop2.water4.frame256.chk
%nprocshared=20
%mem=10GB
%nosave
#b3lyp/svp scf=(tight,noincore,xqc) Test 
#IOP(5/87=12) Density=Current Pop=(MK,readradii) iop(6/33=2) iop(6/42=6)

apoCaM-CA-Ng.loop2.water4.frame256 

   -2  1 
C         40.99582       20.31038        0.78020
C         41.91249       19.21735        0.32185
O         43.10155       19.28260        0.60161
H         40.20627       19.88598        1.43466
H         41.55845       21.07965        1.35235
H         40.52485       20.79413       -0.10046
N         41.42055       18.16169       -0.38766
C         42.27061       17.07200       -0.85141
C         43.28006       17.61401       -1.84729
O         42.88479       18.05814       -2.91713
C         41.41216       15.95021       -1.48098
C         42.18955       14.72996       -1.90754
O         43.39916       14.65787       -1.75541
O         41.53154       13.69297       -2.45924
H         40.40710       18.13084       -0.58119
H         42.78627       16.64369        0.03758
H         40.86735       16.35184       -2.36319
H         40.65982       15.61981       -0.73220
N         44.60524       17.65031       -1.52924
C         45.62326       18.21180       -2.40944
C         45.28504       19.64523       -2.76259
O         45.06728       20.44994       -1.86661
C         46.99933       18.16088       -1.73837
H         44.89548       17.29143       -0.60626
H         45.68064       17.59889       -3.33607
H         47.77102       18.57439       -2.42337
H         47.00074       18.75221       -0.79740
H         47.26772       17.10936       -1.50275
N         45.23661       20.02695       -4.06925
C         44.86425       21.36294       -4.50991
C         46.07469       22.12197       -5.06647
O         45.90927       23.24551       -5.52147
C         43.74658       21.20612       -5.57357
C         43.10754       22.51988       -5.89045
O         42.45620       23.15909       -4.90762
O         43.20170       23.01978       -6.99943
H         45.48681       19.33800       -4.79619
H         44.47081       21.95112       -3.65104
H         42.94383       20.54128       -5.18604
H         44.17347       20.73900       -6.48866
N         47.32422       21.56892       -5.06901
C         48.48609       22.18358       -5.68842
C         49.04590       23.42558       -5.02046
O         50.04838       23.90140       -5.53538
H         47.46729       20.62291       -4.68978
H         48.25009       22.40980       -6.75089
H         49.30993       21.43624       -5.68257
N         48.50985       24.01285       -3.90534
C         49.11006       25.19764       -3.28871
C         49.45741       24.91100       -1.83632
O         48.56963       24.63671       -1.04115
C         48.16780       26.41030       -3.43608
C         48.78090       27.72511       -2.99349
N         48.08317       28.87493       -3.13938
O         49.90934       27.76583       -2.52383
H         47.65616       23.62492       -3.47960
H         50.04315       25.47196       -3.82779
H         47.22332       26.23190       -2.87895
H         47.92146       26.51685       -4.51529
H         47.13638       28.86787       -3.54559
H         48.49554       29.77699       -2.85706
N         50.75713       24.94938       -1.43246
C         51.20272       24.68370       -0.07656
C         50.75573       25.74687        0.89937
O         50.98869       26.92028        0.64372
H         51.48829       25.15449       -2.13051
H         52.31431       24.70481       -0.07395
H         50.88961       23.66601        0.24320
N         50.20241       25.39721        2.09598
C         49.91504       26.37697        3.14033
C         48.71026       27.23026        2.78562
O         48.85151       28.44473        2.74923
C         49.82379       25.73311        4.55780
C         48.68691       24.73099        4.79732
O         51.05704       25.14582        4.89687
H         50.09073       24.39425        2.30271
H         50.79759       27.05257        3.23251
H         49.66236       26.56307        5.28137
H         51.17993       24.33642        4.33659
H         47.70407       25.21858        4.69155
H         48.75327       23.86394        4.10970
H         48.74722       24.35505        5.84110
N         47.49830       26.66886        2.50503
C         46.30260       27.45332        2.20307
C         45.85500       27.23052        0.76946
O         46.46086       26.45233        0.04602
C         45.17839       27.19137        3.26836
C         44.73858       25.71345        3.46680
C         45.62460       27.75874        4.62697
C         44.07336       25.06783        2.25559
H         47.41922       25.64199        2.49074
H         46.53013       28.54144        2.24553
H         44.27410       27.77402        2.99284
H         43.98196       25.68747        4.28261
H         45.59084       25.08491        3.79020
H         44.80830       27.65944        5.37493
H         46.52107       27.23190        5.01093
H         45.86045       28.84046        4.53370
H         44.77736       24.96402        1.40960
H         43.73279       24.04612        2.52767
H         43.18641       25.66074        1.95171
N         44.78340       27.92277        0.29679
C         44.24096       27.80957       -1.04930
C         44.18830       29.19416       -1.71657
O         43.58362       29.33440       -2.76946
C         42.85165       27.16266       -0.88137
C         42.17507       26.71304       -2.14159
O         42.73998       26.88761       -3.34796
O         41.13353       26.08157       -2.05912
H         44.28780       28.55949        0.93922
H         44.85484       27.12494       -1.67611
H         42.19158       27.82368       -0.29422
H         42.99646       26.23192       -0.29321
N         44.82039       30.26915       -1.15790
C         44.73811       31.63176       -1.67465
C         43.31175       32.15483       -1.50864
O         42.78833       32.01769       -0.40955
C         45.67143       32.54389       -0.83756
C         45.61669       33.98626       -1.28318
C         46.26321       34.40578       -2.45854
C         44.89627       34.92389       -0.52375
C         46.18503       35.74283       -2.86513
C         44.81076       36.25409       -0.93951
C         45.45586       36.66460       -2.10818
H         45.39279       30.12674       -0.31386
H         45.08937       31.65079       -2.72716
H         46.72497       32.18844       -0.87087
H         45.34459       32.47449        0.22391
H         46.82644       33.70026       -3.05690
H         44.38223       34.61979        0.37950
H         46.68548       36.06490       -3.76915
H         44.24044       36.96486       -0.35592
H         45.38858       37.69664       -2.42682
N         42.63860       32.84708       -2.48223
C         41.37237       33.52422       -2.22727
C         40.21699       32.60172       -1.91196
O         39.25163       33.05119       -1.31107
C         41.08817       34.27531       -3.53156
C         42.48806       34.57472       -4.02445
C         43.17856       33.23892       -3.76881
H         41.54592       34.24280       -1.39317
H         40.63791       33.57683       -4.27544
H         40.41513       35.15185       -3.41732
H         42.54832       34.93202       -5.07389
H         42.93497       35.34369       -3.35280
H         42.86431       32.48822       -4.52723
H         44.27227       33.37784       -3.80003
N         40.19782       31.32870       -2.39400
C         39.05590       30.44015       -2.23558
C         38.83174       30.11669       -0.77133
O         37.74708       30.36718       -0.26477
C         39.27703       29.16614       -3.07790
C         38.03827       28.25709       -3.11174
C         38.20905       27.07135       -4.02551
O         39.24823       26.88616       -4.64049
O         37.18873       26.20713       -4.17938
H         41.00553       30.99783       -2.94380
H         38.15674       30.94846       -2.65175
H         40.15816       28.60362       -2.70403
H         39.48889       29.48717       -4.12228
H         37.17083       28.84631       -3.48020
H         37.81223       27.88875       -2.08882
N         39.83215       29.56488       -0.03304
C         39.70470       29.20670        1.36533
H         38.69215       29.42035        1.76743
H         39.90681       28.12130        1.48547
H         40.44874       29.77580        1.96105
H         40.73881       29.40055       -0.48690
Ca        42.12689       25.36286       -4.85645
O         41.85299       28.45245       -5.77186
H         41.51517       29.35444       -5.99940
H         42.76621       28.61111       -5.42393
O         39.64192       25.21185       -7.31069
H         39.47809       25.12845       -8.28358
H         38.77382       24.98229       -6.89327
O         39.32626       23.44899       -4.48285
H         39.42029       22.55833       -4.90516
H         38.35384       23.63315       -4.50777
O         43.37810       26.14785       -7.56532
H         44.09091       25.80035       -6.97196
H         43.31385       25.48073       -8.29408

Ca 1.0



