%chk=apoCaM-CA-Ng.loop4.water3.frame297.chk
%nprocshared=20
%mem=10GB
%nosave
#b3lyp/svp scf=(tight,noincore,xqc) Test 
#IOP(5/87=12) Density=Current Pop=(MK,readradii) iop(6/33=2) iop(6/42=6)

apoCaM-CA-Ng.loop4.water3.frame297 

   -3  1 
C         89.75931       46.90518       17.93307
C         91.12542       46.91430       17.32167
O         91.67572       47.98779       17.14053
H         89.03842       46.42948       17.23820
H         89.78856       46.33979       18.88787
H         89.42242       47.94312       18.14945
N         91.75456       45.74189       17.01486
C         93.11383       45.66061       16.49018
C         94.08376       46.33587       17.43896
O         94.54970       47.42520       17.15731
C         93.23116       46.02811       14.98597
C         92.71853       47.37192       14.54746
O         93.28367       48.50795       14.98911
O         91.80518       47.43531       13.73954
H         91.26827       44.85694       17.22340
H         93.42305       44.59051       16.48274
H         92.65910       45.25617       14.42391
H         94.29562       45.93184       14.67663
N         94.37170       45.71038       18.62170
C         95.28644       46.12312       19.69216
C         96.75609       45.99197       19.28045
O         97.46808       45.20563       19.88955
C         94.95825       47.50878       20.32881
C         95.59428       47.65258       21.74734
C         93.44929       47.78747       20.40893
C         94.98665       46.74145       22.83586
H         93.87884       44.82002       18.79503
H         95.12502       45.36899       20.48735
H         95.38754       48.29948       19.67584
H         95.45338       48.69848       22.09479
H         96.68725       47.46338       21.69025
H         93.01665       47.85141       19.39490
H         92.90833       46.99443       20.96164
H         93.27461       48.76475       20.90349
H         95.48610       46.93379       23.80753
H         93.90628       46.95150       22.98090
H         95.11184       45.66385       22.61294
N         97.26905       46.69308       18.23151
C         98.62505       46.54637       17.73042
C         99.67180       47.16349       18.65195
O        100.58292       46.43169       19.01153
C         98.75708       47.12589       16.30137
C         97.85430       46.40872       15.32875
O         97.98098       45.08102       15.13878
O         97.01411       47.02593       14.69588
H         96.66337       47.31999       17.70807
H         98.84360       45.45838       17.61820
H         99.80161       46.98787       15.94579
H         98.52744       48.21089       16.29292
N         99.70968       48.47832       19.04348
C         98.68494       49.49566       18.83968
C         99.08814       50.51747       17.79949
O        100.09410       50.30159       17.13791
H        100.54072       48.78745       19.57168
H         98.49748       49.98428       19.81735
H         97.74162       49.05294       18.50399
N         98.35228       51.63944       17.51746
C         97.20600       52.16535       18.27261
C         96.14656       51.08196       18.57948
O         95.73392       50.40684       17.42046
C         96.65346       53.43615       17.55718
C         96.15560       53.21021       16.15502
O         96.71690       53.74948       15.21530
O         95.05072       52.47887       15.92846
H         98.68180       52.20279       16.71753
H         97.59320       52.48852       19.26130
H         97.48459       54.17441       17.52266
H         95.83012       53.91679       18.11050
N         94.98037       51.48311       19.39855
C         95.15120       52.46147       20.48824
C         96.13711       52.08050       21.55685
O         96.74050       51.01950       21.50388
H         94.56242       50.61433       19.80357
H         94.16428       52.60948       20.97699
H         95.44562       53.44544       20.09619
N         96.33643       52.95757       22.58024
C         97.26117       52.72586       23.68030
C         96.52143       52.55734       25.00422
O         97.17759       52.26798       25.99723
C         98.37262       53.80821       23.70015
C         97.98414       55.22776       24.15885
C         96.95196       55.92710       23.31199
N         97.17231       56.17348       21.99945
O         95.90280       56.28775       23.82407
H         95.78434       53.82519       22.57603
H         97.78901       51.76284       23.50923
H         98.84003       53.85453       22.69193
H         99.16171       53.46457       24.40483
H         98.90260       55.85531       24.15403
H         97.63004       55.16036       25.20588
H         98.05043       55.88522       21.54539
H         96.45752       56.65621       21.43400
N         95.15677       52.64636       25.08465
C         94.38232       52.30942       26.27723
C         93.58404       53.48217       26.83014
O         92.98084       53.31630       27.87935
C         93.44402       51.10250       25.98004
C         94.26506       49.84477       25.66569
C         92.44867       51.37764       24.83337
H         94.62071       52.90888       24.24781
H         95.06715       52.01239       27.10263
H         92.85384       50.88780       26.89828
H         94.88132       49.98632       24.75219
H         94.93717       49.60949       26.51851
H         93.59095       48.97640       25.50809
H         91.76028       50.51498       24.71342
H         91.83679       52.27908       25.04673
H         92.96677       51.51900       23.86173
N         93.55251       54.69623       26.21144
C         92.90413       55.86667       26.79175
C         91.77990       56.37931       25.90856
O         90.73070       56.71144       26.44590
C         93.96920       56.95565       27.02529
C         95.06505       56.43532       27.92992
N         96.34105       56.35144       27.48937
O         94.79327       56.07050       29.06445
H         94.05895       54.82736       25.32770
H         92.46617       55.64372       27.79117
H         93.50706       57.84807       27.50247
H         94.39687       57.27216       26.04986
H         96.58706       56.65734       26.53880
H         97.08388       55.97373       28.09652
N         91.93292       56.51560       24.55963
C         90.95155       57.17357       23.70210
C         90.47370       56.29190       22.56029
O         91.30212       55.63475       21.94775
C         91.62414       58.40798       23.07462
C         92.16874       59.35903       24.10691
C         91.30889       59.97929       25.02663
C         93.54422       59.64192       24.14970
C         91.81667       60.87286       25.97182
C         94.04972       60.53681       25.09515
C         93.18955       61.15745       26.00670
O         93.69083       62.02627       26.90662
H         92.81491       56.21154       24.12116
H         90.06965       57.52152       24.28272
H         90.89117       58.95903       22.44981
H         92.45023       58.06291       22.41104
H         90.24579       59.77549       25.00926
H         94.22644       59.17361       23.45029
H         91.14095       61.34598       26.67247
H         95.11076       60.75082       25.11502
H         93.12702       62.48529       27.54525
N         89.18822       56.42677       22.09417
C         88.66224       55.91207       20.82115
C         88.24853       54.45002       20.84616
O         87.11524       54.16515       20.48129
C         89.58853       56.21479       19.61794
C         89.89043       57.71714       19.49765
C         90.77028       58.01262       18.31958
O         90.39254       57.75648       17.18764
O         91.97686       58.58163       18.50687
H         88.57173       57.08367       22.59725
H         87.72207       56.47300       20.60836
H         89.07715       55.87989       18.68797
H         90.53669       55.64350       19.68830
H         90.40793       58.06403       20.41114
H         88.94239       58.28752       19.39394
N         89.10256       53.46511       21.22586
C         88.77601       52.04502       21.15088
C         87.51740       51.71402       21.92512
O         86.63484       51.07181       21.37152
C         89.92977       51.17370       21.68163
C         91.28940       51.40381       21.01202
C         91.28420       51.24253       19.52217
O         91.93901       50.19873       18.99569
O         90.84332       52.12209       18.79870
H         90.02630       53.73364       21.56896
H         88.61168       51.76759       20.08556
H         89.65183       50.10573       21.53521
H         90.06550       51.34651       22.77143
H         91.98622       50.65940       21.44941
H         91.71615       52.39904       21.25233
N         87.35621       52.13587       23.20784
C         86.16863       51.82119       23.97077
H         85.26205       52.17424       23.43339
H         86.10303       50.72310       24.12398
H         86.21142       52.32015       24.96145
H         88.08581       52.71661       23.64804
Ca        93.45319       50.50050       17.38677
O         95.73919       49.89999       14.49591
H         96.60958       50.36967       14.51842
H         95.81703       49.20697       15.19785
O         90.47043       50.28070       15.87181
H         90.03272       50.67528       16.66651
H         89.76835       50.28348       15.17428
O         92.67471       51.71203       14.17992
H         92.51983       52.68982       14.19998
H         91.86173       51.34090       13.75408

Ca 1.0



