%chk=apoCaM-CA-Ng.loop2.water4.frame1125.chk
%nprocshared=20
%mem=10GB
%nosave
#b3lyp/svp scf=(tight,noincore,xqc) Test 
#IOP(5/87=12) Density=Current Pop=(MK,readradii) iop(6/33=2) iop(6/42=6)

apoCaM-CA-Ng.loop2.water4.frame1125 

   -2  1 
C         91.96012       61.77437       45.41973
C         93.01426       62.71510       45.93464
O         93.29291       62.67755       47.12418
H         91.11438       62.34209       44.98107
H         92.40522       61.10525       44.65277
H         91.56716       61.14021       46.24348
N         93.69077       63.57942       45.12475
C         93.46603       63.73876       43.68967
C         93.15909       65.21118       43.39705
O         92.55493       65.84879       44.24874
C         94.67687       63.12083       42.94033
C         95.96075       63.82037       43.27620
O         96.17333       64.94190       42.85003
O         96.81506       63.29156       44.17137
H         94.43486       64.15075       45.55309
H         92.57828       63.15947       43.36565
H         94.53176       63.09286       41.84034
H         94.75401       62.06547       43.28219
N         93.51834       65.81798       42.22366
C         93.24349       67.21789       41.89190
C         93.99299       68.23338       42.76088
O         93.76721       69.41908       42.55973
C         91.72934       67.49239       41.87913
H         93.99041       65.26238       41.49765
H         93.59217       67.39524       40.84959
H         91.53084       68.52023       41.50527
H         91.22279       66.78039       41.19313
H         91.27640       67.40697       42.88634
N         94.93697       67.87236       43.68524
C         95.69064       68.83912       44.48844
C         97.15649       68.88470       44.06716
O         97.58217       68.11800       43.21377
C         95.54156       68.51175       45.99654
C         96.13359       67.16676       46.31773
O         97.44763       66.94098       46.11805
O         95.41100       66.25030       46.67253
H         95.16564       66.88172       43.81036
H         95.28876       69.86207       44.32291
H         94.45803       68.51784       46.24913
H         96.03828       69.28138       46.62346
N         97.97405       69.81974       44.62345
C         99.36631       70.03128       44.26285
C        100.32702       68.96961       44.76003
O         99.92203       67.94450       45.28733
H         97.56443       70.48289       45.29858
H         99.68602       70.97487       44.75584
H         99.46825       70.17502       43.16546
N        101.66353       69.22806       44.66609
C        102.73191       68.36954       45.17775
C        102.54078       68.12443       46.66532
O        102.40241       69.08440       47.41186
C        104.09195       69.06964       44.93251
C        105.31308       68.27193       45.32706
N        106.54086       68.82091       45.17861
O        105.20926       67.13909       45.77371
H        101.93333       70.12562       44.23263
H        102.72503       67.40666       44.62070
H        104.10473       70.03037       45.49419
H        104.18514       69.30176       43.84938
H        106.64637       69.77647       44.80608
H        107.38758       68.29470       45.43980
N        102.51317       66.85483       47.16437
C        102.24162       66.56529       48.56281
C        103.28176       67.12290       49.52491
O        104.28480       67.66045       49.07703
H        102.64384       66.05811       46.52415
H        102.19136       65.46322       48.70709
H        101.24852       67.00274       48.80052
N        103.11343       67.06857       50.88268
C        101.94592       66.48152       51.53704
C        101.09076       67.54821       52.19245
O        101.54800       68.65520       52.43957
C        102.34307       65.40021       52.56704
C        103.03423       64.21026       51.90268
O        103.19749       65.93786       53.54481
H        103.83347       67.50365       51.48096
H        101.29156       65.99208       50.79077
H        101.42214       64.99297       53.04950
H        102.62297       66.37391       54.22711
H        103.27484       63.44384       52.67046
H        102.36047       63.74948       51.14882
H        103.97571       64.52509       51.40610
N         99.77537       67.27114       52.40550
C         98.79189       68.20265       52.94662
C         97.98148       67.48857       54.02937
O         97.62100       66.33968       53.81665
C         97.89000       68.76418       51.80537
C         97.21918       67.64987       50.95655
C         98.72270       69.72037       50.92590
C         96.26984       68.17817       49.88083
H         99.43244       66.34900       52.09565
H         99.30203       69.07908       53.39129
H         97.09861       69.38018       52.28392
H         96.62233       66.99312       51.62079
H         97.99285       67.03302       50.45083
H         98.08939       70.24277       50.18235
H         99.18151       70.51498       51.55367
H         99.53084       69.17597       50.39384
H         95.80438       67.31976       49.35350
H         95.46802       68.79256       50.33875
H         96.81057       68.77758       49.12098
N         97.65375       68.04915       55.23099
C         97.87199       69.44307       55.60599
C         96.70695       69.97828       56.44169
O         95.78637       69.23187       56.75437
C         99.23345       69.58511       56.32415
C         99.34050       68.74395       57.56758
O        100.19816       67.87868       57.64686
O         98.51084       68.95222       58.60734
H         97.15869       67.44252       55.90493
H         97.89166       70.07939       54.69836
H         99.41939       70.64561       56.59246
H        100.03742       69.28272       55.61849
N         96.70149       71.27630       56.85812
C         95.68792       71.84486       57.74090
C         95.10666       73.12314       57.14413
O         95.90148       73.96996       56.75282
C         96.34122       72.10279       59.11152
C         95.33264       72.56797       60.13508
C         94.88729       73.90139       60.15040
C         94.81360       71.66137       61.07622
C         93.93730       74.31717       61.08683
C         93.85723       72.07982       62.00547
C         93.41981       73.40661       62.01121
H         97.49447       71.88067       56.59269
H         94.89734       71.10719       57.94763
H         97.19574       72.81114       59.05416
H         96.75570       71.12367       59.44124
H         95.27607       74.62001       59.44080
H         95.13369       70.62659       61.07930
H         93.60004       75.34531       61.09274
H         93.45252       71.37363       62.71879
H         92.67965       73.72890       62.73160
N         93.76030       73.40442       57.10236
C         92.68653       72.58692       57.65932
C         92.55622       71.24113       56.98883
O         92.64389       70.23055       57.67483
C         91.42180       73.44463       57.47167
C         91.99018       74.84554       57.56173
C         93.24882       74.70338       56.71225
H         92.87487       72.46989       58.74890
H         91.02299       73.34891       56.43857
H         90.59725       73.21306       58.17966
H         91.30291       75.65486       57.23483
H         92.29146       75.03235       58.61774
H         92.98856       74.67241       55.63087
H         93.94615       75.54406       56.92038
N         92.34111       71.14802       55.64678
C         92.21834       69.87431       54.96579
C         90.74123       69.52070       54.87689
O         90.02068       70.27845       54.24153
C         92.83708       69.90501       53.54378
C         94.36699       70.09899       53.48393
C         94.88035       71.50458       53.67729
O         96.08271       71.70717       53.63773
O         94.05091       72.55454       53.80722
H         92.17425       72.00812       55.10806
H         92.79946       69.11847       55.51451
H         92.33061       70.64442       52.88510
H         92.64447       68.89531       53.11726
H         94.69954       69.79957       52.46818
H         94.84556       69.40952       54.21033
N         90.16635       68.42474       55.46130
C         90.81870       67.41843       56.28107
H         91.89106       67.57857       56.46115
H         90.32633       67.38842       57.27551
H         90.70315       66.42545       55.79966
H         89.15356       68.28828       55.31882
Ca        97.92602       64.96499       45.17039
O        100.12241       66.14656       42.25790
H         99.92931       66.80353       41.54304
H        100.79340       65.53674       41.85952
O        101.12276       64.66598       44.84841
H        101.88762       64.93267       44.27883
H        101.48058       63.94125       45.42022
O         99.47030       63.07888       42.70738
H         98.87315       63.24964       41.93613
H         99.83697       62.17409       42.54353
O         98.60200       62.92634       47.20291
H         99.25845       63.54766       47.60749
H         97.72645       63.36998       47.33616

Ca 1.0



