%chk=apoCaM-CA-Ng.loop1.water3.frame1202.chk
%nprocshared=20
%mem=10GB
%nosave
#b3lyp/svp scf=(tight,noincore,xqc) Test 
#IOP(5/87=12) Density=Current Pop=(MK,readradii) iop(6/33=2) iop(6/42=6)

apoCaM-CA-Ng.loop1.water3.frame1202 

   0  1 
C         31.72959      107.46376       85.32613
C         31.28482      108.33081       86.46324
O         30.39546      107.92997       87.20165
H         32.80429      107.21692       85.44523
H         31.14253      106.52044       85.29982
H         31.57738      108.00261       84.36712
N         31.84833      109.55936       86.64481
C         31.42826      110.47484       87.69901
C         30.69991      111.65155       87.08406
O         31.05618      112.80085       87.31235
C         32.61102      110.86374       88.61850
C         33.74756      111.61669       87.96714
O         33.73030      111.90880       86.78191
O         34.80095      111.98700       88.71919
H         32.56822      109.86880       85.97556
H         30.68549      109.97595       88.35489
H         33.02359      109.93461       89.06666
H         32.21700      111.49359       89.44626
N         29.61878      111.40875       86.29365
C         28.79620      112.45811       85.71150
C         28.16333      113.29297       86.81700
O         28.37024      114.49664       86.78514
C         27.77497      111.88572       84.70000
C         28.51622      111.24905       83.50512
C         27.55499      110.61275       82.49499
C         28.29498      109.91022       81.33960
N         29.03153      110.84629       80.48686
H         29.36161      110.42555       86.11632
H         29.44797      113.13644       85.11223
H         27.13909      112.71260       84.31369
H         27.10994      111.13719       85.17108
H         29.20249      110.45363       83.86401
H         29.12132      112.03818       83.01078
H         26.85737      111.37629       82.08820
H         26.95801      109.84118       83.02845
H         27.54131      109.38170       80.71577
H         28.99306      109.14516       81.74816
H         28.37867      111.56088       80.09100
H         29.79880      111.31626       81.01651
H         29.46489      110.31451       79.69759
N         27.47593      112.78763       87.88910
C         27.17710      111.38352       88.17224
C         28.13523      110.84554       89.22995
O         29.00458      111.59536       89.66270
C         25.69911      111.23542       88.61735
C         25.47559      111.77052       90.01170
O         25.17839      110.90380       90.99280
O         25.65429      112.94584       90.28144
H         27.22450      113.47628       88.61241
H         27.31861      110.76500       87.27162
H         25.44943      110.15229       88.63307
H         25.01530      111.71813       87.88654
N         28.04772      109.56581       89.70091
C         28.98210      109.02737       90.68263
C         28.32496      108.71367       92.00504
O         27.11584      108.83295       92.13140
H         27.29706      108.94573       89.35528
H         29.79057      109.75756       90.89619
H         29.46435      108.11199       90.27613
N         29.10159      108.36883       93.06828
C         28.60904      108.08863       94.42113
C         29.17813      106.75050       94.89535
O         29.97518      106.17903       94.16012
C         29.03184      109.28025       95.31621
C         28.32579      110.51306       94.82667
O         26.97954      110.55468       94.88183
O         28.94904      111.41666       94.29388
H         30.12594      108.36433       92.92486
H         27.50037      108.00593       94.42223
H         30.13588      109.40798       95.25267
H         28.76305      109.15320       96.37523
N         28.85370      106.12516       96.06682
C         27.90957      106.55155       97.08864
C         26.48506      106.59029       96.59390
O         26.02789      105.61700       96.01381
H         29.32608      105.22697       96.25719
H         28.22057      107.49771       97.56610
H         27.93152      105.79083       97.89928
N         25.69272      107.66091       96.87827
C         24.28043      107.73207       96.50958
C         24.14562      107.89754       95.00957
O         24.80350      108.76891       94.46524
C         23.57443      108.91092       97.23259
C         23.61034      108.76305       98.76299
O         22.23425      109.01041       96.81442
H         26.10357      108.43399       97.42338
H         23.75865      106.80838       96.84689
H         24.08648      109.86089       96.96453
H         21.78314      108.15042       97.02430
H         23.10141      107.82506       99.07370
H         24.64969      108.74401       99.14830
H         23.08547      109.62072       99.23431
N         23.28499      107.11224       94.29066
C         23.07045      107.18990       92.84143
C         22.54209      108.55955       92.42467
O         23.22226      109.55020       92.63874
C         24.36120      106.82482       92.04860
C         24.90018      105.44020       92.48890
C         24.09278      106.86007       90.52794
C         26.23081      105.05914       91.83530
H         22.73541      106.40515       94.80177
H         22.30632      106.42629       92.57291
H         25.12907      107.58001       92.27561
H         24.14686      104.65138       92.27538
H         25.08142      105.45673       93.58251
H         25.01710      106.67237       89.94739
H         23.32636      106.10584       90.24922
H         23.73755      107.86033       90.20984
H         27.00044      105.83217       92.04543
H         26.57931      104.09076       92.25138
H         26.12463      104.92943       90.73981
N         21.37016      108.68061       91.73579
C         20.89616      109.96466       91.22878
C         19.47642      110.25428       91.66735
O         18.63136      110.56135       90.83692
C         21.10554      110.06843       89.69541
C         20.43187      108.94485       88.90418
O         22.47853      110.04911       89.40800
H         20.83267      107.83196       91.50584
H         21.49277      110.79901       91.66268
H         20.67747      111.03554       89.33564
H         22.81810      110.96474       89.58810
H         20.60560      109.10642       87.81971
H         20.86362      107.96001       89.17837
H         19.33838      108.92314       89.08202
N         19.18114      110.29531       92.99387
C         17.95677      110.89719       93.49853
C         18.40707      112.15761       94.19481
O         19.01928      112.06168       95.24849
C         17.15260      109.93650       94.40606
C         16.60774      108.74621       93.61299
O         17.95376      109.45180       95.45544
H         19.91086      110.03024       93.67443
H         17.28762      111.19404       92.66117
H         16.26316      110.48096       94.80733
H         17.72030      109.96611       96.27160
H         15.94381      109.10041       92.79516
H         17.43607      108.15124       93.17357
H         16.01272      108.08759       94.28165
N         18.25728      113.36946       93.57626
C         18.83560      114.62476       94.05405
C         20.35725      114.57899       94.02910
O         20.94681      113.65020       94.56095
C         18.34202      115.00616       95.45563
C         16.81451      115.08449       95.52347
C         16.37780      115.48875       96.93122
C         14.85291      115.49541       97.05856
N         14.45465      115.85015       98.41938
H         17.74234      113.40689       92.68301
H         18.50638      115.44015       93.37031
H         18.76942      116.00123       95.71367
H         18.70661      114.27830       96.20906
H         16.38566      114.08752       95.28163
H         16.43706      115.82545       94.78377
H         16.77793      116.50012       97.16585
H         16.79364      114.76049       97.66157
H         14.45925      114.48307       96.81512
H         14.41795      116.22554       96.34024
H         14.79439      116.81133       98.65314
H         13.41211      115.82923       98.48806
H         14.85257      115.16152       99.09932
N         21.07053      115.60038       93.48041
C         22.52802      115.60654       93.47119
C         23.07113      114.57875       92.48309
O         23.82849      113.72689       92.92243
C         23.09840      117.02270       93.24708
C         22.71104      117.96117       94.40522
C         23.32134      119.32065       94.23439
O         23.04046      120.00478       93.26340
O         24.17219      119.79852       95.16275
H         20.56302      116.42054       93.11488
H         22.89363      115.32591       94.48721
H         22.75086      117.46027       92.29543
H         24.20892      116.95204       93.21992
H         23.06939      117.52699       95.36502
H         21.60767      118.07191       94.46513
N         22.75453      114.53374       91.15448
C         21.85110      115.43602       90.47449
H         20.83962      115.38953       90.92442
H         22.24097      116.46856       90.48182
H         21.76000      115.13468       89.40936
H         23.16948      113.78096       90.58428
Ca        25.77686      111.30334       93.12873
O         25.37447      113.14083       95.61782
H         24.72908      113.86797       95.80442
H         26.10306      113.27814       96.27392
O         28.05987      113.37422       92.02012
H         28.02688      112.38774       91.94530
H         27.75104      113.56153       92.94177
O         22.77660      111.33941       94.98910
H         22.82575      111.68979       94.06630
H         21.91993      110.84513       95.01143

Ca 1.0



