%chk=apoCaM-CA-Ng.loop4.water7.frame519.chk
%nprocshared=20
%mem=10GB
%nosave
#b3lyp/svp scf=(tight,noincore,xqc) Test 
#IOP(5/87=12) Density=Current Pop=(MK,readradii) iop(6/33=2) iop(6/42=6)

apoCaM-CA-Ng.loop4.water7.frame519 

   -3  1 
C         83.63332       60.03238       56.84902
C         83.94844       58.67292       56.30609
O         83.29105       57.71472       56.68501
H         82.78786       59.98301       57.56829
H         84.52467       60.44436       57.36533
H         83.34828       60.70442       56.01211
N         84.94348       58.52480       55.38209
C         85.33437       57.25776       54.76366
C         84.25791       56.65996       53.87012
O         84.51110       55.60264       53.30642
C         85.79910       56.23872       55.83469
C         86.94392       56.80732       56.61624
O         88.05604       57.18358       55.95887
O         86.85985       56.96105       57.82411
H         85.47375       59.36420       55.10267
H         86.20014       57.45573       54.09256
H         86.14698       55.30415       55.34397
H         84.96877       55.96245       56.51785
N         83.03642       57.24659       53.69012
C         81.97558       56.59163       52.93457
C         82.31463       56.52343       51.44708
O         83.15675       57.29450       51.00747
C         80.58496       57.25726       53.18557
C         80.50446       58.70164       52.62472
C         80.24161       57.20324       54.69077
C         79.10447       59.30900       52.72905
H         82.82794       58.13708       54.14990
H         81.92575       55.55920       53.33684
H         79.82442       56.65628       52.65088
H         80.76576       58.68639       51.54537
H         81.22316       59.36969       53.14372
H         80.35150       56.17098       55.07920
H         80.90873       57.85724       55.28716
H         79.19460       57.51392       54.87605
H         78.36881       58.67034       52.19501
H         78.79174       59.42819       53.78575
H         79.10417       60.31634       52.26265
N         81.74812       55.62421       50.58760
C         80.82709       54.56124       50.97046
C         81.53262       53.21905       50.88347
O         81.57383       52.53124       51.89555
C         79.46520       54.64622       50.23324
C         79.41402       54.59676       48.72739
O         80.41728       54.54363       48.04079
O         78.21181       54.64229       48.12248
H         82.05782       55.65390       49.60456
H         80.53164       54.64945       52.03046
H         78.98068       55.60150       50.53049
H         78.83065       53.81828       50.61602
N         82.17074       52.79367       49.75478
C         82.85873       51.51832       49.69120
C         81.86939       50.38833       49.80788
O         81.01264       50.26304       48.94365
H         82.21772       53.39381       48.92464
H         83.62502       51.47944       50.49630
H         83.38729       51.42068       48.71813
N         81.92117       49.52690       50.86324
C         80.99528       48.40609       51.02322
C         79.52598       48.82364       51.20302
O         78.68074       47.93983       51.21718
C         81.49547       47.45028       52.13338
C         81.63379       48.07946       53.49454
O         80.55626       48.52842       54.15679
O         82.73144       48.15160       54.02402
H         82.67661       49.65427       51.55425
H         81.03615       47.81064       50.08342
H         82.49866       47.08164       51.82051
H         80.82719       46.56583       52.20445
N         79.13115       50.13142       51.27155
C         77.73725       50.55975       51.23612
C         76.92731       50.28734       52.48625
O         75.76584       50.66743       52.50064
H         79.83273       50.87813       51.25062
H         77.24109       50.11066       50.35037
H         77.72075       51.66413       51.10351
N         77.46945       49.70992       53.59265
C         76.79252       49.58345       54.87837
C         76.40278       50.95738       55.40327
O         75.30166       51.13063       55.90793
C         75.58483       48.61985       54.83708
C         75.96923       47.17526       54.48979
C         74.77286       46.24727       54.52460
N         74.93912       44.92185       54.31690
O         73.65113       46.68113       54.74951
H         78.44965       49.41771       53.56522
H         77.53306       49.17416       55.60256
H         74.82562       48.99147       54.11645
H         75.12293       48.60073       55.84957
H         76.70904       46.81711       55.23806
H         76.43212       47.13378       53.48041
H         75.87490       44.53058       54.13788
H         74.12967       44.28372       54.34804
N         77.28147       51.99285       55.29820
C         77.02470       53.32371       55.83984
C         78.10532       53.74585       56.82326
O         77.90260       54.75115       57.49298
C         76.86349       54.37647       54.70938
C         78.06642       54.40667       53.75405
C         75.57733       54.13293       53.91146
H         78.16481       51.82635       54.79652
H         76.08167       53.31543       56.43014
H         76.76397       55.37927       55.18283
H         77.94168       55.22834       53.01862
H         79.00558       54.56774       54.31401
H         78.15935       53.45583       53.18899
H         75.44636       54.92780       53.14637
H         75.60634       53.14899       53.40168
H         74.69727       54.16080       54.58901
N         79.27865       53.06239       56.97067
C         80.28258       53.45873       57.94588
C         79.80019       53.16271       59.35137
O         78.74793       52.56632       59.53557
C         81.61479       52.71589       57.68475
C         82.19742       53.08894       56.34749
N         82.56287       54.36596       56.09279
O         82.35438       52.23117       55.49180
H         79.49230       52.25518       56.37166
H         80.46465       54.55219       57.85422
H         81.44182       51.61773       57.73719
H         82.37391       52.97706       58.45147
H         82.45224       55.10372       56.80324
H         82.96958       54.61517       55.18375
N         80.56481       53.55340       60.40113
C         80.25604       53.27127       61.79409
C         80.11741       54.57417       62.55113
O         80.17803       55.63098       61.93751
C         81.39792       52.38952       62.34428
C         81.40897       51.05845       61.62847
C         82.46193       50.70929       60.76687
C         80.34526       50.15754       61.81126
C         82.44353       49.48294       60.09297
C         80.33304       48.93085       61.14406
C         81.37800       48.58939       60.28089
O         81.34616       47.40411       59.63911
H         81.43998       54.06554       60.20865
H         79.29251       52.72882       61.90718
H         81.29098       52.19089       63.43042
H         82.36037       52.92925       62.19653
H         83.28832       51.38963       60.60419
H         79.52529       50.40438       62.47421
H         83.25561       49.22929       59.42353
H         79.50775       48.24663       61.29708
H         82.04592       47.12871       59.03018
N         79.93343       54.57141       63.90151
C         79.84078       55.78864       64.69039
C         81.09109       55.88588       65.55138
O         81.19501       55.13178       66.50858
C         78.54124       55.75693       65.52341
C         78.38031       56.97304       66.44671
C         77.08797       56.89194       67.20905
O         76.02126       56.89276       66.61512
O         77.09990       56.82147       68.55411
H         79.90511       53.67091       64.40231
H         79.76912       56.67793       64.03537
H         78.52426       54.83484       66.14701
H         77.68008       55.71079       64.81978
H         78.39571       57.91172       65.85363
H         79.22112       56.99843       67.17308
N         82.11825       56.75045       65.28310
C         82.23699       57.55674       64.06680
C         81.65309       58.94145       64.25066
O         81.24107       59.29713       65.34678
C         83.71515       57.65109       63.62583
C         84.27743       56.28573       63.20438
C         85.70632       56.41176       62.75824
O         85.99682       57.12927       61.81352
O         86.67421       55.72386       63.39270
H         82.92917       56.72927       65.92205
H         81.69995       57.07669       63.22985
H         84.32399       58.08281       64.45120
H         83.80116       58.32649       62.74822
H         83.67703       55.88123       62.35964
H         84.21785       55.57058       64.05206
N         81.57852       59.78123       63.17972
C         81.05592       61.12477       63.27281
H         80.00327       61.10231       63.62363
H         81.67630       61.72222       63.97333
H         81.08819       61.60818       62.27218
H         81.90067       59.45602       62.25537
Ca        89.76868       58.29825       56.89836
O         91.94716       59.56889       54.18437
H         92.80438       59.07380       54.18366
H         92.18917       60.48171       53.88713
O         92.24269       56.94305       56.06185
H         92.22912       55.97480       56.26676
H         93.19303       57.14768       55.87570
O         92.17804       59.88269       57.56196
H         92.51925       60.79995       57.70955
H         92.42579       59.38690       58.38250
O         89.95717       61.48926       55.73204
H         90.17670       62.01723       56.54039
H         90.22412       62.07048       54.97605
O         87.75035       60.13482       58.28643
H         87.16117       60.57930       58.94555
H         87.95082       59.25518       58.69333
O         90.17824       56.94196       59.42517
H         89.19063       56.98113       59.48562
H         90.49589       57.47587       60.19564
O         89.35868       57.49482       53.42528
H         90.30438       57.20292       53.40626
H         88.84012       56.65151       53.45555

Ca 1.0



