%chk=apoCaM-CA-Ng.loop1.water3.frame1166.chk
%nprocshared=20
%mem=10GB
%nosave
#b3lyp/svp scf=(tight,noincore,xqc) Test 
#IOP(5/87=12) Density=Current Pop=(MK,readradii) iop(6/33=2) iop(6/42=6)

apoCaM-CA-Ng.loop1.water3.frame1166 

   0  1 
C        107.50630       43.91479       11.24128
C        107.57636       45.21722       11.98232
O        106.62682       45.53685       12.68409
H        108.44919       43.70704       10.69436
H        107.33240       43.09382       11.96853
H        106.66772       43.93728       10.51356
N        108.66573       46.03334       11.86039
C        108.80063       47.29528       12.58383
C        108.32032       48.47544       11.75254
O        109.05541       49.43209       11.54779
C        110.22645       47.48373       13.16103
C        111.31166       47.63746       12.12148
O        112.01370       48.78502       12.05209
O        111.58470       46.72517       11.35901
H        109.41262       45.74491       11.21583
H        108.12738       47.26722       13.46234
H        110.47832       46.63048       13.82541
H        110.21653       48.40414       13.78685
N        107.04049       48.48936       11.29145
C        106.44450       49.62791       10.60596
C        106.40810       50.84577       11.51886
O        106.90436       51.87906       11.09351
C        105.04314       49.30315       10.02775
C        105.01120       48.03408        9.14029
C        106.06461       48.02914        8.01377
C        106.12283       46.69887        7.24640
N        104.89943       46.42228        6.49646
H        106.45707       47.66300       11.46369
H        107.07661       49.88876        9.73018
H        104.71429       50.17659        9.42151
H        104.29719       49.16592       10.83790
H        103.99088       47.94403        8.71189
H        105.17844       47.14125        9.77596
H        107.07428       48.14004        8.45769
H        105.88942       48.87701        7.31680
H        106.32667       45.86721        7.95842
H        106.97571       46.74900        6.53323
H        104.71587       47.19449        5.81592
H        105.02810       45.52924        5.96787
H        104.08644       46.30655        7.14118
N        105.93169       50.84035       12.80233
C        105.39984       49.69167       13.53787
C        106.44920       49.20215       14.53043
O        107.54239       49.75342       14.54515
C        104.04018       50.05388       14.16345
C        104.12408       51.22253       15.09831
O        104.88207       51.14843       16.20458
O        103.51267       52.24848       14.85072
H        106.04532       51.71649       13.33775
H        105.20080       48.83712       12.87320
H        103.62312       49.18293       14.70738
H        103.33553       50.29804       13.33777
N        106.22175       48.13552       15.35145
C        107.28401       47.52559       16.14498
C        107.17239       47.81168       17.61693
O        106.26616       48.50854       18.03943
H        105.28882       47.69609       15.37315
H        108.28200       47.89148       15.82766
H        107.26994       46.42678       15.97009
N        108.12642       47.32813       18.45961
C        108.10868       47.50614       19.91087
C        108.23081       46.13970       20.58725
O        108.53143       45.17600       19.89460
C        109.29174       48.41268       20.30994
C        109.17440       49.77664       19.69112
O        110.04754       50.18823       18.94452
O        108.11418       50.55881       19.97282
H        108.91839       46.81052       18.04493
H        107.15502       47.98138       20.22363
H        110.24447       47.93536       19.98791
H        109.34288       48.55718       21.40158
N        108.02923       45.91915       21.91971
C        107.54588       46.87841       22.89706
C        106.12440       47.29488       22.61312
O        105.33408       46.47538       22.16741
H        108.19026       44.96193       22.27129
H        108.22367       47.74253       23.02558
H        107.52289       46.37133       23.88603
N        105.70262       48.53959       22.95907
C        104.32355       48.98688       22.79870
C        103.97023       49.15998       21.32486
O        104.75521       49.72774       20.58021
C        104.07705       50.26210       23.63936
C        102.62562       50.74772       23.55459
O        104.95042       51.28816       23.25508
H        106.38188       49.17103       23.41213
H        103.64697       48.22686       23.25090
H        104.27792       49.97567       24.70116
H        105.18765       51.79390       24.07660
H        101.93038       49.93766       23.86379
H        102.47949       51.61212       24.23567
H        102.37312       51.06601       22.52107
N        102.76046       48.71484       20.86914
C        102.24206       48.78918       19.50159
C        102.22709       50.21842       18.96749
O        103.28356       50.74855       18.65737
C        103.01274       47.85409       18.52326
C        103.21982       46.41538       19.06011
C        102.36178       47.83291       17.12541
C        101.94024       45.60088       19.24839
H        102.12240       48.29347       21.56149
H        101.19388       48.42004       19.54516
H        104.01863       48.27479       18.40661
H        103.75459       46.46438       20.03075
H        103.88017       45.86284       18.35531
H        101.32225       47.44821       17.17317
H        102.32267       48.85240       16.69077
H        102.95139       47.19305       16.43458
H        102.20529       44.60057       19.65123
H        101.25492       46.09678       19.96447
H        101.42277       45.44676       18.27956
N        101.05162       50.88548       18.79258
C        100.97144       52.19064       18.13442
C        100.64498       53.32617       19.09690
O        100.58037       54.46336       18.64370
C         99.97500       52.12553       16.94557
C         98.52405       51.86573       17.37203
O        100.36292       51.11288       16.05291
H        100.18410       50.44375       19.12550
H        101.95809       52.44824       17.70353
H         99.97511       53.10883       16.41676
H        101.07129       51.49293       15.47227
H         97.86794       51.86721       16.47575
H         98.41314       50.87827       17.86396
H         98.16889       52.65803       18.06345
N        100.44318       53.11934       20.42815
C        100.13969       54.20291       21.36064
C        101.33273       55.14160       21.48853
O        102.37053       54.70469       21.96530
C         99.76188       53.61384       22.74487
C         99.44784       54.69289       23.78323
O         98.62840       52.79198       22.61128
H        100.48801       52.15628       20.79195
H         99.25423       54.75853       20.97705
H        100.62115       53.02336       23.14453
H         98.94625       51.85930       22.48995
H         99.18026       54.21059       24.74738
H        100.33197       55.33954       23.96241
H         98.59685       55.32082       23.44558
N        101.25305       56.44653       21.08498
C        102.34913       57.40791       21.21117
C        103.58330       56.89257       20.49461
O        104.59993       56.63385       21.12521
C        102.61927       57.77309       22.69043
C        101.40223       58.46328       23.32883
C        101.71740       58.96111       24.74521
C        100.50038       59.66611       25.36185
N        100.80925       60.17849       26.69660
H        100.37822       56.77895       20.65161
H        102.06037       58.36077       20.71239
H        103.46885       58.49217       22.71402
H        102.90559       56.87739       23.28203
H        100.54514       57.75703       23.35954
H        101.11628       59.34118       22.70764
H        102.56496       59.68044       24.69728
H        102.01258       58.10284       25.38707
H         99.65247       58.94877       25.42937
H        100.19069       60.51481       24.71141
H        101.09572       59.39516       27.32734
H        101.57762       60.88619       26.64032
H         99.95730       60.63816       27.09219
N        103.54702       56.72985       19.14483
C        104.64597       56.17862       18.36594
C        104.16802       54.91635       17.60765
O        103.98391       53.89631       18.54449
C        105.28996       57.24904       17.45931
C        106.06936       58.28909       18.27745
C        106.72946       59.29363       17.37674
O        106.05477       60.01550       16.65976
O        108.07159       59.40579       17.35969
H        102.69074       57.00865       18.64197
H        105.47426       55.82421       19.02095
H        104.53893       57.77899       16.84942
H        106.01504       56.74597       16.78149
H        106.85491       57.76811       18.86844
H        105.39305       58.82073       18.97990
N        102.92000       55.04468       16.83370
C        102.95959       56.01278       15.74198
H        102.68413       57.01435       16.12585
H        103.94538       56.01334       15.22905
H        102.17750       55.75926       14.99425
H        102.77122       54.11287       16.38727
Ca       105.83275       52.57571       18.40628
O        108.08723       51.39255       16.87760
H        107.85315       51.97082       16.10886
H        109.00576       51.08123       16.68201
O        108.24950       54.20797       18.41653
H        107.94826       54.19569       17.47324
H        108.12929       55.14809       18.70119
O        104.75538       52.80925       21.06235
H        105.72484       52.65578       21.19440
H        104.63841       53.77572       21.23103

Ca 1.0



