%chk=apoCaM-CA-Ng.loop3.water4.frame1067.chk
%nprocshared=20
%mem=10GB
%nosave
#b3lyp/svp scf=(tight,noincore,xqc) Test 
#IOP(5/87=12) Density=Current Pop=(MK,readradii) iop(6/33=2) iop(6/42=6)

apoCaM-CA-Ng.loop3.water4.frame1067 

   0  1 
C         31.98567       85.08497       29.04658
C         32.85000       86.24671       29.43770
O         33.98510       86.02894       29.83651
H         30.98406       85.42247       28.70544
H         32.46919       84.52133       28.22224
H         31.85070       84.41437       29.92092
N         32.36729       87.51752       29.35986
C         33.12789       88.69539       29.74721
C         32.49693       89.32589       30.97747
O         33.19946       89.43903       31.97267
C         33.35460       89.63676       28.53731
C         32.14570       89.96245       27.69421
O         31.11727       90.67253       28.18224
O         32.11280       89.60451       26.52763
H         31.40085       87.65902       29.02912
H         34.15663       88.40988       30.06286
H         34.07318       89.11240       27.86755
H         33.85140       90.57276       28.87479
N         31.18945       89.71963       31.02200
C         30.57068       90.26157       32.22888
C         30.25537       91.73645       32.02194
O         29.12723       92.17711       32.18795
C         29.35503       89.40012       32.63919
C         29.76784       87.93954       32.92713
C         28.58800       87.01373       33.27122
C         27.87115       87.38385       34.57954
N         26.80674       86.42416       34.87701
H         30.59455       89.61204       30.19243
H         31.28385       90.23715       33.08347
H         28.59985       89.41755       31.82406
H         28.90648       89.83979       33.55485
H         30.51183       87.91159       33.75387
H         30.25057       87.51805       32.01878
H         28.99051       85.98207       33.37823
H         27.86099       87.01400       32.43024
H         27.42560       88.39771       34.49881
H         28.60456       87.38429       35.41638
H         27.20742       85.46499       34.99485
H         26.33186       86.70159       35.76632
H         26.10091       86.41761       34.10503
N         31.29072       92.56225       31.71250
C         31.25254       94.02532       31.63019
C         31.76193       94.53063       30.28594
O         32.00043       95.72341       30.15314
C         32.14347       94.57151       32.76439
C         33.49309       93.92413       32.74496
O         34.28026       94.09111       31.82608
O         33.74553       93.02755       33.70377
H         32.21043       92.11340       31.57977
H         30.22961       94.42819       31.79183
H         31.65431       94.29098       33.72362
H         32.23535       95.67799       32.74940
N         31.93229       93.68497       29.23741
C         32.49411       94.07110       27.95770
C         31.41247       94.21634       26.91359
O         30.24978       94.30718       27.28345
H         31.63247       92.70842       29.32994
H         33.19952       93.26253       27.68790
H         33.06501       95.02295       28.00958
N         31.67116       94.22558       25.57440
C         32.97399       93.99219       24.96097
C         32.91676       92.60542       24.32717
O         32.00552       92.36859       23.54641
C         33.26318       95.07618       23.90295
C         34.61534       94.89018       23.25293
N         35.75559       94.99811       23.97577
O         34.68027       94.64871       22.05687
H         30.86081       94.30276       24.93855
H         33.77987       94.05363       25.71196
H         33.23682       96.08332       24.37202
H         32.46959       95.04037       23.12396
H         35.72629       95.21552       24.98238
H         36.67458       94.86798       23.52660
N         33.80564       91.60963       24.60893
C         34.99724       91.80011       25.41916
C         35.81529       90.54341       25.59331
O         35.36855       89.45425       25.25621
H         33.63761       90.69219       24.16792
H         34.74483       92.16484       26.43379
H         35.63215       92.54991       24.90518
N         37.07080       90.64746       26.10622
C         37.95554       89.51088       26.32785
C         38.50473       89.56447       27.75048
O         38.27045       90.54734       28.44316
C         39.08513       89.59816       25.27287
C         40.01007       88.40693       25.21520
C         41.38558       88.56129       25.45713
C         39.51128       87.13485       24.88451
C         42.24579       87.46221       25.37232
C         40.37346       86.03742       24.80042
C         41.74510       86.19834       25.04323
O         42.58922       85.15023       24.95978
H         37.43722       91.59354       26.30378
H         37.39473       88.56170       26.18634
H         39.66070       90.53383       25.45128
H         38.62178       89.68579       24.26508
H         41.79502       89.53199       25.70656
H         38.45704       86.99338       24.68282
H         43.30406       87.59431       25.55893
H         39.97522       85.06444       24.54111
H         42.28478       84.26112       24.72810
N         39.26779       88.55481       28.25439
C         39.92904       88.64263       29.56199
C         40.92511       89.80292       29.59871
O         41.16655       90.43055       28.57669
C         40.64778       87.30464       29.95464
C         39.61477       86.23290       30.37268
C         41.61813       86.79883       28.86234
C         40.26022       84.96832       30.94804
H         39.37909       87.71133       27.67940
H         39.16366       88.86787       30.33564
H         41.25378       87.49949       30.86354
H         38.95285       85.96333       29.52297
H         38.98444       86.66375       31.18220
H         41.08050       86.44159       27.96143
H         42.32692       87.59852       28.56488
H         42.22189       85.94680       29.23330
H         40.93143       85.22772       31.79582
H         39.47035       84.28572       31.32503
H         40.83961       84.42467       30.17506
N         41.55791       90.12183       30.76888
C         42.57863       91.15900       30.87545
C         42.28309       92.15044       32.00062
O         41.28931       92.01930       32.70089
C         43.93997       90.47438       31.07480
O         43.94601       89.72966       32.26133
H         41.35337       89.56788       31.61356
H         42.64306       91.73964       29.92914
H         44.75873       91.22411       31.10077
H         44.11262       89.80191       30.20266
H         44.77069       89.17844       32.23329
N         43.14757       93.18627       32.20759
C         43.02552       94.23970       33.20888
C         43.07505       93.73353       34.64401
O         42.28722       94.19400       35.45998
C         41.79931       95.12533       32.93332
H         43.96869       93.25712       31.58924
H         43.92172       94.88954       33.09463
H         41.84777       95.52872       31.90024
H         40.85594       94.55216       33.05182
H         41.77970       95.98553       33.63740
N         44.01618       92.82215       35.03919
C         44.24392       92.43834       36.43335
C         42.94501       92.08711       37.13581
O         42.54195       92.78036       38.06163
C         45.00716       93.55769       37.15138
H         44.62683       92.39916       34.32393
H         44.91648       91.55180       36.46350
H         45.23860       93.24752       38.19374
H         45.96949       93.74283       36.62747
H         44.42184       94.49981       37.17212
N         42.23049       91.01081       36.72461
C         40.92434       90.66531       37.25900
C         41.01974       89.40672       38.08441
O         40.69744       89.45505       39.26466
C         39.95310       90.53530       36.07933
C         38.57377       90.02699       36.49113
C         37.66735       90.08823       35.31315
O         37.90363       89.47301       34.28464
O         36.61901       90.90812       35.38993
H         42.62773       90.41316       35.98321
H         40.53728       91.46733       37.93089
H         40.36498       89.83782       35.31754
H         39.85937       91.54240       35.60929
H         38.16376       90.68330       37.29112
H         38.62289       88.98562       36.87165
N         41.44868       88.23903       37.54145
C         41.54348       87.03274       38.33060
H         42.24519       87.19323       39.17717
H         40.54175       86.76245       38.72879
H         41.92005       86.19959       37.70308
H         41.71603       88.20394       36.54689
Ca        35.41011       91.58189       33.67931
O         34.70831       88.48667       34.32194
H         34.02746       87.81177       34.07434
H         34.23720       89.09790       34.94248
O         37.43962       93.73136       33.68815
H         36.63912       94.01291       34.19902
H         37.32873       94.15710       32.80129
O         36.48346       92.15767       30.63448
H         36.50361       92.60704       29.75239
H         37.28862       91.58189       30.63997
O         36.51661       88.99042       31.26468
H         36.95448       88.26282       31.77320
H         36.67105       88.75766       30.31454

Ca 1.0



