%chk=apoCaM-CA-Ng.loop1.water3.frame289.chk
%nprocshared=20
%mem=10GB
%nosave
#b3lyp/svp scf=(tight,noincore,xqc) Test 
#IOP(5/87=12) Density=Current Pop=(MK,readradii) iop(6/33=2) iop(6/42=6)

apoCaM-CA-Ng.loop1.water3.frame289 

   0  1 
C         55.70790       56.05776       46.00245
C         55.49299       57.34884       45.26437
O         56.09970       57.54694       44.22149
H         56.77316       55.96664       46.29830
H         55.08342       56.00531       46.92035
H         55.43337       55.20431       45.34785
N         54.61880       58.27409       45.74577
C         54.30767       59.52797       45.06575
C         55.44843       60.54902       45.08806
O         55.19406       61.65773       44.66294
C         53.04504       60.17513       45.69448
C         51.80449       59.32211       45.59164
O         51.83265       58.10761       45.00731
O         50.74811       59.74795       46.03000
H         54.09947       58.04462       46.60780
H         54.04665       59.31741       44.00741
H         52.81392       61.11998       45.15606
H         53.23928       60.41662       46.76175
N         56.70979       60.30262       45.54547
C         57.73015       61.35507       45.61537
C         58.88311       61.10587       44.66985
O         59.14978       59.94424       44.39308
C         58.24930       61.42960       47.06358
C         57.16832       61.99162       47.99248
C         57.74631       62.30043       49.37828
C         56.71294       62.92290       50.33083
N         56.24220       64.23180       49.86894
H         56.96745       59.36410       45.87746
H         57.30930       62.33178       45.31962
H         59.13284       62.08828       47.11370
H         58.59916       60.43329       47.41342
H         56.31937       61.27795       48.06894
H         56.79377       62.93167       47.54378
H         58.60341       63.00356       49.27725
H         58.12216       61.35535       49.82574
H         57.19766       63.05362       51.32276
H         55.85043       62.23192       50.45398
H         55.58979       64.63141       50.58083
H         57.04754       64.88625       49.73924
H         55.71832       64.14366       48.97415
N         59.68882       62.10016       44.15811
C         59.59751       63.57329       44.26978
C         59.56294       64.10560       45.69533
O         58.48126       64.26245       46.23937
C         58.50124       64.21975       43.39555
C         58.65168       63.83547       41.95788
O         59.85450       63.44420       41.49473
O         57.65650       63.64942       41.27792
H         60.48835       61.76799       43.59411
H         60.52391       63.96357       43.80199
H         58.61005       65.32392       43.44811
H         57.47984       63.96576       43.74786
N         60.68717       64.45039       46.38254
C         62.00508       64.42990       45.77838
C         63.12559       64.79943       46.72841
O         62.89230       64.94042       47.92003
H         60.57322       64.77409       47.35482
H         61.98680       65.18445       44.96202
H         62.22489       63.41955       45.36863
N         64.39525       65.01611       46.27767
C         64.77706       64.97679       44.86777
C         64.97838       66.39104       44.35961
O         64.98362       67.32829       45.14786
C         65.97290       64.03236       44.63969
C         67.17659       64.37867       45.47158
O         67.73808       65.45331       45.33528
O         67.64465       63.49218       46.37192
H         65.10693       65.31175       46.96443
H         63.95574       64.57306       44.24613
H         66.25648       64.02831       43.56532
H         65.64916       63.00204       44.90636
N         65.03218       66.62748       43.01966
C         65.06037       67.96687       42.45394
C         63.77933       68.76472       42.67862
O         63.74370       69.90069       42.22530
H         65.02755       65.82852       42.36742
H         65.19613       67.88462       41.35360
H         65.93138       68.51942       42.86671
N         62.68842       68.25951       43.33376
C         61.43963       68.99649       43.52407
C         61.19083       69.22691       45.01148
O         61.95377       68.73269       45.83470
C         60.28338       68.19128       42.86085
C         60.52687       67.98654       41.36303
O         59.05660       68.85429       43.01055
H         62.71081       67.30050       43.70628
H         61.49980       70.00079       43.04980
H         60.23796       67.19450       43.36231
H         58.34452       68.16213       42.97489
H         60.57321       68.97037       40.84846
H         61.47135       67.43406       41.18194
H         59.69247       67.39660       40.92699
N         60.13507       69.98479       45.42788
C         59.79988       70.22387       46.82771
C         58.47951       69.55015       47.20829
O         58.10322       69.63139       48.36546
C         59.74603       71.76011       47.13151
C         58.60175       72.47832       46.35641
C         61.11182       72.40855       46.84205
C         58.38122       73.93260       46.78066
H         59.52550       70.40826       44.71429
H         60.57267       69.77082       47.48839
H         59.54143       71.87398       48.21960
H         57.64637       71.95465       46.55504
H         58.78676       72.45390       45.26239
H         61.35611       72.34698       45.75992
H         61.12430       73.47495       47.14507
H         61.90903       71.89522       47.41902
H         58.15699       73.98696       47.86724
H         59.26072       74.56599       46.55120
H         57.51369       74.34867       46.22448
N         57.70433       68.91173       46.27494
C         56.36960       68.39364       46.56015
C         56.12694       67.04374       45.88633
O         56.96048       66.56811       45.13503
C         55.31904       69.43900       46.09684
C         55.44036       69.77834       44.60391
O         55.47197       70.62652       46.82972
H         58.00443       68.89201       45.29847
H         56.24512       68.24157       47.65452
H         54.29049       69.04747       46.26478
H         55.15875       70.44029       47.75323
H         55.31329       68.87031       43.97972
H         54.65969       70.51411       44.32109
H         56.42676       70.23616       44.37582
N         54.96459       66.37225       46.14299
C         54.60887       65.08174       45.54498
C         54.32468       65.19971       44.04001
O         54.40603       66.28930       43.48848
C         53.37799       64.47410       46.29425
C         52.07337       65.26003       46.09965
O         53.66481       64.39342       47.66557
H         54.32849       66.78773       46.83647
H         55.45296       64.37462       45.70380
H         53.21014       63.44550       45.90777
H         53.15467       63.62425       48.03276
H         51.79899       65.30790       45.02822
H         51.24959       64.74353       46.63719
H         52.15249       66.29220       46.49513
N         53.89432       64.10845       43.33907
C         53.36368       64.14433       41.98213
C         53.83349       62.96101       41.11737
O         53.32881       62.81610       40.01340
C         51.82294       64.27028       42.09055
C         51.11037       63.13765       42.85759
C         49.65049       63.53246       43.14528
C         48.87731       62.47724       43.95273
N         48.64512       61.25526       43.18339
H         53.75694       63.23390       43.84770
H         53.68880       65.07074       41.45903
H         51.37079       64.37450       41.08050
H         51.63247       65.22403       42.63172
H         51.58542       62.97340       43.84528
H         51.18053       62.20140       42.26719
H         49.10838       63.75118       42.20069
H         49.66502       64.46275       43.75704
H         47.89078       62.91137       44.23032
H         49.41939       62.24048       44.89594
H         48.06114       60.60217       43.75387
H         48.12821       61.48359       42.30295
H         49.54697       60.78091       42.95650
N         54.84541       62.12598       41.51150
C         55.38375       61.04072       40.68490
C         54.36846       59.92696       40.49094
O         53.92990       59.33932       41.46925
C         56.68528       60.47382       41.32273
C         57.34764       59.32004       40.54001
C         57.62864       59.59120       39.07603
O         57.02489       58.94799       38.23415
O         58.54758       60.48438       38.65492
H         55.31344       62.31681       42.40269
H         55.67416       61.46606       39.70036
H         56.46341       60.10088       42.34840
H         57.42203       61.28562       41.42880
H         56.66280       58.44844       40.60036
H         58.29384       59.02850       41.04728
N         53.99584       59.55178       39.23387
C         53.11175       58.43639       38.95536
H         52.22468       58.79386       38.39334
H         53.65274       57.69275       38.33093
H         52.76730       57.92294       39.87758
H         54.37973       60.05871       38.42279
Ca        59.72721       61.85598       39.95456
O         61.27637       62.50248       36.71814
H         61.10099       63.12767       35.97046
H         61.63695       61.68951       36.28284
O         58.31461       63.53364       37.86436
H         58.30264       64.51899       37.95727
H         57.68405       63.21187       38.55668
O         61.33341       64.82160       38.92762
H         62.00242       65.30686       39.47293
H         61.10873       65.44787       38.19423

Ca 1.0



