%chk=apoCaM-CA-Ng.loop4.water4.frame567.chk
%nprocshared=20
%mem=10GB
%nosave
#b3lyp/svp scf=(tight,noincore,xqc) Test 
#IOP(5/87=12) Density=Current Pop=(MK,readradii) iop(6/33=2) iop(6/42=6)

apoCaM-CA-Ng.loop4.water4.frame567 

   -3  1 
C         56.41850       -2.16281       66.57901
C         55.44748       -3.29990       66.46741
O         55.57443       -4.25520       67.21157
H         57.44630       -2.53417       66.38444
H         56.19032       -1.36153       65.84481
H         56.37048       -1.73224       67.60058
N         54.43583       -3.25563       65.56028
C         53.44470       -4.30743       65.34836
C         52.68963       -4.60553       66.63658
O         52.52844       -5.76585       66.99290
C         54.07609       -5.58783       64.74403
C         55.12383       -5.28270       63.71327
O         54.86551       -4.64986       62.70315
O         56.38425       -5.66258       64.00206
H         54.34369       -2.41173       64.97409
H         52.72349       -3.90953       64.60025
H         53.28711       -6.26040       64.34332
H         54.59785       -6.14048       65.54556
N         52.22992       -3.58165       67.40900
C         51.47742       -3.78420       68.64555
C         50.11349       -3.12582       68.50393
O         49.98133       -2.23157       67.67865
C         52.25914       -3.25412       69.89465
C         52.56356       -1.73383       69.80605
C         53.53880       -4.08215       70.10546
C         53.22201       -1.16315       71.06576
H         52.41574       -2.61603       67.09921
H         51.31217       -4.86669       68.79590
H         51.62978       -3.41538       70.79202
H         51.60803       -1.18564       69.66586
H         53.22386       -1.51663       68.94010
H         54.24628       -3.92988       69.27031
H         54.04735       -3.81189       71.05277
H         53.28836       -5.16082       70.17597
H         53.34991       -0.06611       70.94990
H         52.58596       -1.35307       71.95618
H         54.22884       -1.59722       71.23110
N         49.02659       -3.47434       69.24895
C         48.95256       -4.58569       70.19503
C         49.03479       -5.90971       69.45372
O         49.83127       -6.76232       69.82080
C         47.61712       -4.55351       70.97417
C         47.46076       -3.30817       71.81092
O         47.38872       -2.20768       71.28750
O         47.37234       -3.40674       73.15058
H         48.16867       -2.92511       69.08586
H         49.75259       -4.51468       70.95955
H         47.59498       -5.43152       71.65803
H         46.75233       -4.63638       70.28085
N         48.22066       -6.13444       68.38445
C         48.14508       -7.38727       67.65574
C         47.45898       -8.43759       68.49189
O         46.38670       -8.16092       69.01248
H         47.60984       -5.36954       68.06077
H         49.14854       -7.70291       67.29213
H         47.50018       -7.22679       66.76566
N         47.98715       -9.68544       68.63211
C         47.32711      -10.72873       69.41633
C         47.39549      -10.49059       70.92632
O         46.88453      -11.32981       71.65636
C         47.84912      -12.14176       69.04465
C         49.31975      -12.40421       69.23803
O         50.16965      -11.43230       69.61128
O         49.75753      -13.52072       69.01240
H         48.84347       -9.91231       68.10501
H         46.25032      -10.75373       69.13193
H         47.61566      -12.33516       67.97528
H         47.27981      -12.88722       69.64376
N         47.96980       -9.38092       71.48328
C         48.03587       -9.18772       72.92391
C         49.07841      -10.06986       73.58504
O         49.13883      -10.07901       74.80583
H         48.35210       -8.63406       70.89172
H         47.02743       -9.35694       73.36009
H         48.32475       -8.13713       73.14677
N         49.98696      -10.77166       72.84164
C         51.08115      -11.58579       73.36096
C         52.15791      -10.77776       74.08558
O         53.14886      -11.38030       74.47548
C         50.55407      -12.77489       74.19718
C         49.69459      -13.71919       73.33219
C         49.22729      -14.95389       74.06519
N         48.52310      -15.89970       73.40093
O         49.48687      -15.11598       75.24900
H         49.93127      -10.71626       71.82295
H         51.61607      -12.02462       72.48766
H         49.97779      -12.42036       75.07763
H         51.42338      -13.35997       74.56965
H         50.30637      -14.05625       72.46703
H         48.80426      -13.17825       72.94558
H         48.30459      -15.78565       72.39995
H         48.20486      -16.75350       73.88312
N         52.07623       -9.42582       74.27561
C         53.14427       -8.66149       74.91860
C         54.36656       -8.53304       74.01741
O         55.43303       -8.19468       74.51464
C         52.67500       -7.23072       75.33239
C         52.33322       -6.32326       74.13009
C         51.48008       -7.29448       76.29560
H         51.24549       -8.91787       73.96128
H         53.42649       -9.19729       75.85292
H         53.51393       -6.74697       75.88125
H         53.21288       -6.19554       73.46500
H         51.49295       -6.72708       73.52919
H         52.04723       -5.31153       74.48760
H         50.58581       -7.73449       75.80698
H         51.73705       -7.90544       77.18616
H         51.21445       -6.27256       76.64018
N         54.23773       -8.61628       72.66244
C         55.29780       -8.24932       71.72625
C         56.45840       -9.26413       71.75739
O         56.44822      -10.16724       72.57806
C         54.67113       -8.09993       70.31285
C         55.44136       -7.21968       69.35426
N         55.11071       -7.21208       68.04904
O         56.35012       -6.49833       69.74349
H         53.30503       -8.82416       72.27393
H         55.66234       -7.24095       72.02362
H         53.67639       -7.60720       70.38160
H         54.51168       -9.11460       69.88945
H         54.34550       -7.80105       67.69102
H         55.65775       -6.64452       67.39193
N         57.48167       -9.17742       70.85722
C         58.66212      -10.03388       70.81444
C         59.90609       -9.14120       70.77243
O         59.76126       -7.92994       70.83237
C         58.59864      -10.96956       69.57712
C         58.53088      -10.27295       68.23408
C         59.66903      -10.20557       67.41275
C         57.32459       -9.71986       67.77131
C         59.60667       -9.57756       66.16537
C         57.26288       -9.10018       66.51918
C         58.40225       -9.01915       65.71674
O         58.32626       -8.40466       64.52000
H         57.44932       -8.46264       70.13471
H         58.71272      -10.68946       71.70991
H         57.73217      -11.66163       69.65934
H         59.49416      -11.62428       69.60056
H         60.60842      -10.63038       67.74095
H         56.42786       -9.78210       68.37264
H         60.49580       -9.52222       65.55005
H         56.32903       -8.68243       66.16695
H         59.09228       -8.31913       63.93616
N         61.16029       -9.66669       70.61018
C         62.33173       -8.81514       70.41642
C         62.85679       -9.01646       69.00358
O         63.33927      -10.10400       68.72265
C         63.45002       -9.12949       71.42803
C         63.01856       -8.90063       72.88012
C         64.18872       -9.06820       73.80809
O         64.16952      -10.01888       74.76091
O         65.15973       -8.33371       73.70928
H         61.28249      -10.68601       70.54494
H         62.07625       -7.75278       70.57306
H         64.30440       -8.45371       71.19710
H         63.79672      -10.18134       71.31360
H         62.21882       -9.62587       73.14552
H         62.62107       -7.87057       73.00164
N         62.82402       -8.05043       68.03457
C         62.14507       -6.76012       68.13329
C         63.07254       -5.66054       68.59006
O         64.13767       -5.48956       68.01365
C         61.42329       -6.39067       66.82069
C         62.27537       -6.19839       65.55095
C         61.34473       -5.98998       64.38524
O         60.50866       -4.93248       64.36442
O         61.27488       -6.83304       63.50661
H         63.23997       -8.30388       67.12727
H         61.29422       -6.83667       68.84140
H         60.86100       -5.44880       67.00286
H         60.68900       -7.19694       66.62464
H         62.87574       -7.10838       65.35335
H         62.96244       -5.33279       65.65302
N         62.68872       -4.83731       69.60727
C         63.48221       -3.72585       70.08774
H         64.46499       -3.65531       69.57762
H         62.92674       -2.77947       69.91360
H         63.65414       -3.84287       71.17761
H         61.76655       -4.97668       70.04846
Ca        58.47793       -5.09387       63.35973
O         60.31410       -6.12423       60.86354
H         61.19177       -6.58064       60.81935
H         59.98973       -6.11934       59.92870
O         58.47613       -5.58954       66.31157
H         58.29533       -6.37113       66.88894
H         57.60011       -5.15428       66.19706
O         57.30235       -4.18053       60.59491
H         57.00258       -3.57934       59.86820
H         56.51983       -4.75945       60.77155
O         57.66191       -7.71418       61.53987
H         56.93919       -7.54832       62.19538
H         57.45100       -7.11332       60.78234

Ca 1.0



