%chk=apoCaM-CA-Ng.loop3.water3.frame617.chk
%nprocshared=20
%mem=10GB
%nosave
#b3lyp/svp scf=(tight,noincore,xqc) Test 
#IOP(5/87=12) Density=Current Pop=(MK,readradii) iop(6/33=2) iop(6/42=6)

apoCaM-CA-Ng.loop3.water3.frame617 

   0  1 
C         77.81237       19.92973       70.24763
C         78.59024       20.49508       69.09348
O         78.58386       21.70189       68.89938
H         76.73351       20.15396       70.11896
H         77.93090       18.82603       70.31347
H         78.17544       20.37384       71.19656
N         79.28122       19.65995       68.27339
C         80.06904       20.09544       67.12489
C         79.18750       20.86296       66.15090
O         78.14473       20.36164       65.75373
C         80.69643       18.84736       66.49107
C         81.68279       19.07572       65.39532
O         82.25246       18.10451       64.92432
O         82.04216       20.29933       64.97592
H         79.23982       18.64947       68.48169
H         80.89681       20.74690       67.48670
H         79.89148       18.17888       66.13603
H         81.26272       18.31581       67.28799
N         79.53186       22.12750       65.78334
C         78.66675       23.01680       65.01092
C         78.36627       22.47738       63.61818
O         77.25113       22.68540       63.15987
C         79.23559       24.45806       64.99086
C         79.32950       25.01597       66.43265
C         79.97418       26.40225       66.51909
C         80.11500       26.81386       67.99729
N         80.77467       28.11020       68.13473
H         80.43360       22.48882       66.12261
H         77.69078       23.08759       65.54409
H         78.56704       25.12243       64.39943
H         80.23799       24.45242       64.51337
H         79.94586       24.34353       67.05970
H         78.31073       25.05549       66.87818
H         79.35706       27.14577       65.97003
H         80.98477       26.36325       66.05811
H         80.71720       26.04912       68.53904
H         79.10941       26.85885       68.47205
H         81.73285       28.07099       67.71719
H         80.20896       28.85330       67.66547
H         80.86124       28.33959       69.15183
N         79.26461       21.71641       62.92064
C         78.93433       21.05754       61.65100
C         79.00560       19.53060       61.76102
O         78.74558       18.85960       60.77196
C         79.82824       21.57696       60.50561
C         81.24870       21.08574       60.56922
O         82.03054       21.36480       61.62623
O         81.69723       20.41726       59.65136
H         80.19928       21.56582       63.32580
H         77.89125       21.30931       61.35945
H         79.80898       22.68788       60.49488
H         79.39141       21.22813       59.54235
N         79.32962       18.91121       62.93394
C         79.38956       17.46931       63.11242
C         80.59924       16.79443       62.49374
O         80.72444       15.59388       62.69836
H         79.48603       19.47341       63.77557
H         78.44612       17.00541       62.75207
H         79.45376       17.25812       64.19611
N         81.51652       17.45282       61.72303
C         82.63548       16.77475       61.06497
C         83.94233       17.55171       61.20224
O         83.94008       18.65512       61.71894
C         82.27864       16.61177       59.57635
C         81.04109       15.76082       59.41862
N         79.89745       16.28384       58.91925
O         81.06906       14.58835       59.76342
H         81.37010       18.44693       61.50730
H         82.79563       15.76508       61.50627
H         83.10424       16.12980       59.01220
H         82.11063       17.62242       59.14354
H         79.84553       17.27419       58.64057
H         79.05266       15.69993       58.82933
N         85.10640       17.02649       60.72554
C         86.39888       17.70829       60.71924
C         86.92403       18.03545       62.10107
O         86.88200       17.17032       62.96447
H         85.07761       16.08310       60.30821
H         86.34763       18.62366       60.09122
H         87.13609       17.02293       60.24966
N         87.51643       19.24675       62.35555
C         88.05360       19.62405       63.66804
C         86.89540       20.05350       64.59333
O         85.95066       19.03837       64.60185
C         89.07859       20.77410       63.53939
C         90.32376       20.36581       62.78239
C         91.17434       19.36663       63.29311
C         90.66534       20.99923       61.57624
C         92.34145       19.01049       62.60916
C         91.83220       20.63956       60.89288
C         92.67545       19.64479       61.40882
O         93.80755       19.29478       60.76471
H         87.63139       19.90631       61.57060
H         88.57511       18.75100       64.11980
H         89.41259       21.10394       64.54711
H         88.58272       21.64153       63.05265
H         90.94318       18.86953       64.22685
H         90.03137       21.77399       61.16487
H         92.99066       18.24447       63.01590
H         92.08241       21.13820       59.96511
H         94.07975       19.71402       59.93578
N         87.35451       20.38445       65.96608
C         86.32033       20.77880       66.96587
C         85.52649       21.98913       66.46278
O         84.91306       21.90593       65.41758
C         85.43132       19.56224       67.44877
C         84.28043       19.94785       68.41151
C         86.29188       18.45296       68.09493
C         84.69517       20.64211       69.70974
H         87.98697       19.64242       66.33917
H         86.86498       21.11701       67.87407
H         84.89815       19.10647       66.59829
H         83.71731       19.02559       68.68031
H         83.56994       20.59266       67.86458
H         85.65045       17.61338       68.43891
H         87.01071       18.01591       67.37498
H         86.85971       18.84172       68.96649
H         83.78620       20.85072       70.31287
H         85.37123       20.00379       70.31270
H         85.19117       21.60715       69.50511
N         85.46904       23.15464       67.17033
C         84.70518       24.32033       66.71924
C         85.50655       25.61801       66.77696
O         84.92770       26.65423       66.48359
C         83.44052       24.45749       67.58293
O         82.58498       23.36912       67.37109
H         85.92663       23.20077       68.09268
H         84.36122       24.19789       65.66912
H         82.87893       25.36840       67.29079
H         83.69210       24.56478       68.66302
H         82.88300       22.65134       67.98066
N         86.81955       25.65821       67.15402
C         87.55507       26.90378       67.35239
C         88.76498       26.98568       66.43216
O         89.46923       25.99303       66.31776
C         88.03247       26.96857       68.80288
H         87.32168       24.78303       67.35576
H         86.89354       27.77743       67.22089
H         88.71233       26.12120       69.03421
H         88.57396       27.92295       68.98041
H         87.15992       26.92922       69.48881
N         89.16290       28.14270       65.81645
C         88.48525       29.42961       65.94170
C         89.42161       30.57624       65.56820
O         89.96149       30.54573       64.47021
C         87.25650       29.48866       65.02199
H         90.05570       28.11102       65.29812
H         88.15901       29.55777       66.98752
H         86.52543       28.68932       65.24666
H         86.74359       30.46720       65.15092
H         87.55900       29.38612       63.95803
N         89.64047       31.66329       66.37237
C         88.98112       31.88820       67.65907
C         89.55188       31.03909       68.79054
O         88.97919       31.07232       69.87171
C         88.98373       33.38790       68.03925
C         90.37036       33.98989       68.32286
C         90.24019       35.44286       68.68459
O         90.64915       35.87845       69.89128
O         89.76527       36.23621       67.88673
H         90.22929       32.41435       65.98280
H         87.90356       31.64625       67.53153
H         88.35388       33.52071       68.94757
H         88.50053       33.95253       67.21108
H         91.02989       33.91056       67.43507
H         90.84793       33.44643       69.16590
N         90.67562       30.27859       68.63778
C         91.24842       29.48289       69.70774
H         92.27990       29.83638       69.91867
H         90.66325       29.54645       70.64970
H         91.28995       28.41872       69.39588
H         91.17181       30.26458       67.73581
Ca        84.00670       20.02546       63.97013
O         82.58506       23.61004       63.39352
H         82.74495       24.50527       63.78334
H         82.41399       23.78974       62.43511
O         85.78831       22.86641       62.80421
H         86.26518       23.55124       63.33698
H         86.42121       22.62947       62.08108
O         84.80263       21.31272       60.33424
H         84.26958       20.53340       60.04199
H         85.46142       21.44017       59.60749

Ca 1.0



