%chk=apoCaM-CA-Ng.loop3.water3.frame693.chk
%nprocshared=20
%mem=10GB
%nosave
#b3lyp/svp scf=(tight,noincore,xqc) Test 
#IOP(5/87=12) Density=Current Pop=(MK,readradii) iop(6/33=2) iop(6/42=6)

apoCaM-CA-Ng.loop3.water3.frame693 

   0  1 
C         91.73475       73.28461      103.27594
C         93.18683       73.53215      103.55247
O         93.53717       74.61746      103.99467
H         91.12555       74.17754      103.53235
H         91.59201       73.04236      102.20307
H         91.38443       72.43001      103.89397
N         94.09346       72.53724      103.34936
C         95.50025       72.68088      103.69373
C         96.18551       73.68050      102.77542
O         96.19947       73.47832      101.56916
C         96.20344       71.30607      103.66655
C         97.52339       71.29293      104.39292
O         98.19765       70.13408      104.51091
O         97.97977       72.30393      104.90427
H         93.74875       71.62509      103.01087
H         95.54322       73.02439      104.74511
H         96.32288       70.94827      102.62137
H         95.57024       70.57293      104.20182
N         96.78296       74.78649      103.29639
C         97.47431       75.79764      102.49828
C         98.62901       75.19950      101.71013
O         98.73594       75.48714      100.52611
C         98.00114       76.93367      103.40864
C         96.84542       77.75836      104.00569
C         97.35006       78.86671      104.93853
C         96.17747       79.72496      105.43938
N         96.63512       80.76128      106.36418
H         96.75447       74.90645      104.32046
H         96.76870       76.26271      101.77286
H         98.62631       77.62893      102.80448
H         98.63941       76.50677      104.21201
H         96.15549       77.10503      104.57977
H         96.27721       78.21896      103.16724
H         98.06839       79.51981      104.39605
H         97.87103       78.40295      105.80492
H         95.43271       79.07978      105.95640
H         95.67806       80.20691      104.56867
H         97.06447       80.32116      107.21020
H         97.33239       81.38403      105.89544
H         95.81512       81.33745      106.66353
N         99.52846       74.36394      102.30240
C        100.72943       73.85805      101.62610
C        100.69045       72.37312      101.28971
O        101.42095       71.97983      100.38958
C        102.00237       74.22025      102.42873
C        102.03328       73.69681      103.85046
O        101.00999       72.97575      104.34527
O        102.97590       73.97241      104.57395
H         99.33967       74.10537      103.27715
H        100.81982       74.35788      100.63639
H        102.06739       75.32774      102.48314
H        102.89858       73.84798      101.88592
N         99.90996       71.48373      101.96098
C         99.82315       70.07472      101.60353
C        100.57021       69.15803      102.54810
O        100.54521       67.96172      102.29589
H         99.36492       71.81135      102.76058
H        100.26128       69.89467      100.59795
H         98.75184       69.78526      101.54402
N        101.30262       69.62204      103.60646
C        102.15120       68.75158      104.41676
C        101.75904       68.77268      105.88198
O        100.99158       69.62405      106.30270
C        103.61791       69.21835      104.28788
C        104.07758       69.29402      102.85283
N        104.12968       68.18662      102.07886
O        104.41061       70.37353      102.38552
H        101.32049       70.62690      103.81244
H        102.06773       67.70071      104.06578
H        104.29501       68.54059      104.85071
H        103.70368       70.23425      104.73487
H        103.86075       67.26682      102.45540
H        104.44523       68.25059      101.09950
N        102.26946       67.82600      106.71886
C        102.07497       67.79516      108.15895
C        100.62491       67.88596      108.58928
O         99.79579       67.11601      108.12712
H        102.85745       67.08132      106.31374
H        102.65222       68.63013      108.61150
H        102.51067       66.85026      108.55032
N        100.27833       68.80030      109.54018
C         98.93085       68.98566      110.07691
C         98.02462       69.70325      109.07909
O         98.45411       69.99723      107.97201
C         99.02729       69.83102      111.37705
C         99.80591       69.13539      112.46932
C         99.31916       67.94758      113.04383
C        101.00969       69.68160      112.94412
C        100.02310       67.32135      114.07715
C        101.71459       69.05077      113.97389
C        101.22397       67.87264      114.54646
O        101.91031       67.28415      115.54693
H        101.03801       69.36818      109.94714
H         98.48512       68.00080      110.33811
H         98.02876       70.05025      111.80405
H         99.49583       70.80599      111.12492
H         98.38830       67.51243      112.70206
H        101.40311       70.59644      112.51922
H         99.63170       66.41167      114.51556
H        102.64090       69.48237      114.33131
H        101.60011       66.47506      115.97824
N         96.75452       70.05166      109.44928
C         95.79776       70.83812      108.67028
C         96.33429       72.23351      108.35629
O         97.38418       72.35959      107.74756
C         95.31251       70.13031      107.37432
C         94.16735       70.93390      106.67835
C         94.86084       68.68733      107.64557
C         92.87099       71.10702      107.48379
H         96.42769       69.76177      110.38295
H         94.90022       70.94399      109.31301
H         96.16353       70.07192      106.66275
H         93.89507       70.42823      105.72916
H         94.53350       71.94697      106.42511
H         94.03332       68.65365      108.38315
H         94.52297       68.21383      106.69856
H         95.70481       68.08491      108.04049
H         92.40841       70.12749      107.71675
H         93.03309       71.66704      108.42460
H         92.14496       71.69259      106.88087
N         95.59369       73.33153      108.67360
C         95.97553       74.69422      108.31393
C         95.96402       75.62221      109.51511
O         96.16696       76.81588      109.31436
C         95.00820       75.20871      107.23568
O         93.68485       75.23329      107.70418
H         94.67923       73.19705      109.12740
H         96.99415       74.72594      107.86948
H         95.09670       74.57283      106.32903
H         95.29284       76.23361      106.91375
H         93.22992       74.43099      107.33567
N         95.74820       75.17290      110.78546
C         95.65140       76.05995      111.93627
C         96.83187       75.84859      112.87593
O         97.49383       74.82493      112.75360
C         94.32128       75.77229      112.64747
H         95.64918       74.16092      110.96344
H         95.64046       77.10558      111.59243
H         93.47618       75.93248      111.94478
H         94.29480       74.71642      112.99451
H         94.15585       76.41541      113.52726
N         97.18140       76.72839      113.86304
C         96.60131       78.05576      114.06343
C         96.98777       78.59635      115.43659
O         98.17723       78.70105      115.70180
C         97.11946       79.05020      113.00586
H         97.94554       76.44009      114.49436
H         95.51059       77.99904      113.97590
H         98.22337       79.15321      113.07091
H         96.88162       78.75698      111.96934
H         96.66044       80.04864      113.17680
N         96.07510       79.01375      116.36513
C         94.62756       78.98923      116.17574
C         94.06581       77.57962      116.26128
O         92.97861       77.35978      115.74627
C         93.91406       79.87896      117.21291
C         94.32483       81.35420      117.06381
C         93.61028       82.22217      118.05629
O         92.39181       82.29590      118.04612
O         94.31374       82.94006      118.95254
H         96.44773       79.41711      117.23920
H         94.38520       79.42707      115.18187
H         94.14543       79.51828      118.24023
H         92.81477       79.80593      117.05423
H         94.07981       81.70845      116.03890
H         95.41897       81.46479      117.21652
N         94.71285       76.59377      116.94929
C         94.19284       75.24737      117.09053
H         93.23664       75.09934      116.54586
H         94.93513       74.52316      116.69602
H         94.01705       75.03165      118.16592
H         95.60385       76.80014      117.42304
Ca       100.68651       72.43586      106.50623
O        103.33699       71.63473      107.39948
H        103.27403       71.92824      106.45621
H        104.03103       72.22098      107.79102
O         99.60214       75.24908      106.36934
H        100.52356       75.47739      106.08699
H         99.53523       75.58698      107.29737
O        100.23441       72.96328      109.29909
H        101.10214       72.63702      109.64741
H         99.63191       72.96969      110.08375

Ca 1.0



