%chk=apoCaM-CA-Ng.loop2.water5.frame649.chk
%nprocshared=20
%mem=10GB
%nosave
#b3lyp/svp scf=(tight,noincore,xqc) Test 
#IOP(5/87=12) Density=Current Pop=(MK,readradii) iop(6/33=2) iop(6/42=6)

apoCaM-CA-Ng.loop2.water5.frame649 

   -2  1 
C        -19.97281       36.96879       19.01438
C        -21.20787       37.03944       19.86179
O        -21.53086       36.05062       20.50371
H        -19.09367       36.74639       19.65395
H        -20.09051       36.15797       18.26388
H        -19.79431       37.92253       18.47576
N        -21.97161       38.16961       19.89057
C        -23.21318       38.25481       20.64886
C        -22.93740       38.18113       22.14276
O        -22.50670       39.16982       22.72161
C        -23.96359       39.56262       20.29070
C        -25.30534       39.72585       20.95890
O        -25.96141       40.73194       20.74151
O        -25.79757       38.78505       21.78849
H        -21.68498       38.97183       19.30832
H        -23.85530       37.40059       20.33562
H        -24.12752       39.58916       19.19135
H        -23.32661       40.43370       20.56226
N        -23.15907       37.02380       22.82820
C        -23.03277       36.91589       24.27842
C        -21.69087       36.30216       24.66691
O        -21.02661       35.76734       23.79038
C        -24.21647       36.06964       24.77597
H        -23.42624       36.17976       22.29733
H        -23.09304       37.92857       24.71892
H        -25.17027       36.54194       24.46012
H        -24.16621       35.05273       24.32712
H        -24.25624       35.94323       25.86765
N        -21.18287       36.32400       25.94108
C        -21.79134       36.98319       27.10008
C        -21.79553       38.50708       26.97800
O        -21.26564       39.05233       26.01917
C        -21.08480       36.53697       28.41198
C        -19.66609       37.01129       28.59863
O        -19.12281       37.73370       27.78121
O        -18.99470       36.65284       29.70900
H        -20.29110       35.82652       26.09207
H        -22.82690       36.62892       27.21054
H        -21.09660       35.42652       28.45479
H        -21.66404       36.89838       29.28700
N        -22.35271       39.25151       27.97280
C        -22.37030       40.70427       28.02256
C        -21.53514       41.16139       29.20448
O        -21.69030       40.56766       30.26252
H        -22.77719       38.76101       28.77342
H        -23.42491       41.01963       28.17172
H        -22.02864       41.15046       27.07569
N        -20.63608       42.19421       29.17485
C        -20.42783       43.15872       28.09819
C        -19.83955       42.53726       26.84544
O        -20.46355       42.55432       25.79224
C        -21.69269       44.01414       27.85227
C        -22.09849       44.75411       29.11022
N        -22.03886       46.10550       29.17109
O        -22.47690       44.12619       30.08812
H        -20.10467       42.37393       30.04170
H        -19.66040       43.89305       28.43684
H        -22.54671       43.40623       27.49293
H        -21.45142       44.75557       27.05918
H        -21.71365       46.66061       28.36661
H        -22.30609       46.60086       30.03515
N        -18.56434       42.06615       26.87812
C        -17.88385       41.57385       25.69206
C        -16.40336       41.46948       25.95793
O        -15.80230       42.49554       26.24409
H        -18.04181       42.13531       27.76597
H        -18.00410       42.30434       24.86163
H        -18.33473       40.60921       25.37811
N        -15.73843       40.28332       25.86026
C        -14.30290       40.15435       26.10427
C        -13.75757       38.92471       25.33082
O        -14.23455       37.71767       25.85566
C        -13.96965       40.06279       27.62431
C        -14.30271       41.32701       28.42378
O        -14.65247       38.97477       28.19271
H        -16.26000       39.45870       25.53287
H        -13.79378       41.03338       25.64905
H        -12.86889       39.90634       27.70305
H        -14.16178       38.71905       29.01653
H        -15.39642       41.50566       28.45972
H        -13.96205       41.20364       29.47334
H        -13.78275       42.20793       27.99148
N        -12.29166       38.88810       25.21611
C        -11.86675       38.09335       24.03609
C        -11.30407       36.77688       24.52645
O        -10.34675       36.79202       25.28863
C        -10.80451       38.83842       23.14875
C        -10.22783       37.87877       22.05973
C        -11.43633       40.08440       22.48768
C         -9.16629       38.50072       21.15108
H        -11.90830       39.85830       25.18228
H        -12.72861       37.88224       23.36200
H         -9.95985       39.16446       23.79614
H        -11.04807       37.47684       21.43133
H         -9.73118       37.01764       22.55488
H        -12.25837       39.78531       21.80369
H        -11.84710       40.79412       23.23091
H        -10.68178       40.65597       21.91132
H         -8.77293       37.72024       20.46475
H         -9.59123       39.30788       20.52193
H         -8.32393       38.89788       21.75596
N        -11.81167       35.59492       24.06566
C        -11.24031       34.29645       24.40274
C        -10.68247       33.57752       23.17769
O        -10.05650       32.54424       23.37234
C        -12.30138       33.39641       25.06445
C        -12.85602       33.98030       26.33177
O        -13.46327       35.03719       26.31116
O        -12.71263       33.32044       27.49640
H        -12.62051       35.61547       23.42880
H        -10.39016       34.42554       25.10815
H        -11.84385       32.41192       25.30473
H        -13.13561       33.22302       24.35143
N        -10.88398       34.01287       21.89500
C        -10.37703       33.27176       20.74333
C        -11.20519       33.56374       19.49608
O        -10.65749       34.03388       18.50510
C         -8.85661       33.54540       20.60232
C         -8.18646       32.83553       19.44458
C         -7.42788       33.57136       18.51436
C         -8.28737       31.44114       19.29052
C         -6.78307       32.92436       17.45565
C         -7.65131       30.80050       18.22163
C         -6.89730       31.54053       17.30743
H        -11.45812       34.84765       21.71498
H        -10.52721       32.18420       20.91681
H         -8.35342       33.20731       21.53202
H         -8.69480       34.64346       20.51869
H         -7.32206       34.64468       18.61384
H         -8.86019       30.84798       19.99040
H         -6.19223       33.49605       16.75112
H         -7.73938       29.72826       18.10403
H         -6.39917       31.04160       16.48588
N        -12.54146       33.25402       19.43995
C        -13.34395       33.35397       18.23122
C        -13.67712       34.77952       17.83264
O        -14.29142       34.94690       16.78947
C        -14.59069       32.52334       18.55755
C        -14.74960       32.76797       20.04129
C        -13.30684       32.67200       20.52966
H        -12.82382       32.87495       17.37116
H        -15.48433       32.72710       17.92940
H        -14.32892       31.44570       18.44727
H        -15.09573       33.81952       20.16938
H        -15.45672       32.09306       20.56841
H        -13.23236       33.23133       21.48306
H        -12.97755       31.61888       20.66836
N        -13.29765       35.85651       18.57848
C        -13.45665       37.21393       18.08494
C        -12.36813       37.46198       17.06665
O        -12.67901       37.77091       15.92400
C        -13.40292       38.27485       19.20521
C        -14.66358       38.29499       20.09383
C        -14.77660       37.23056       21.14337
O        -15.84791       37.25066       21.95268
O        -13.86176       36.46288       21.38269
H        -12.77762       35.71380       19.45064
H        -14.45019       37.33387       17.59579
H        -13.39778       39.26222       18.69274
H        -12.47316       38.21676       19.80620
H        -15.56979       38.28983       19.45258
H        -14.65913       39.25167       20.66043
N        -11.05895       37.30906       17.40736
C         -9.98994       37.49037       16.45191
H         -9.01148       37.28551       16.93591
H        -10.11907       36.78407       15.60364
H         -9.99358       38.53336       16.07181
H        -10.81126       37.03203       18.37017
Ca       -15.38103       36.88534       24.10208
O        -15.78417       33.37772       23.62376
H        -15.48400       32.48628       23.93272
H        -16.25050       33.19722       22.76971
O        -18.04972       34.21173       25.92901
H        -18.54203       33.45817       25.51723
H        -18.32434       34.19742       26.88047
O        -18.18703       35.35696       22.83532
H        -18.63646       36.19321       22.55525
H        -18.09081       34.84013       21.99717
O        -16.06543       35.86763       27.47149
H        -15.43284       36.38445       28.02972
H        -16.86902       36.44111       27.41355
O        -18.28543       37.66705       24.71021
H        -18.11627       38.13153       25.56486
H        -18.33913       38.39422       24.04102

Ca 1.0



