%chk=apoCaM-CA-Ng.loop2.water4.frame1345.chk
%nprocshared=20
%mem=10GB
%nosave
#b3lyp/svp scf=(tight,noincore,xqc) Test 
#IOP(5/87=12) Density=Current Pop=(MK,readradii) iop(6/33=2) iop(6/42=6)

apoCaM-CA-Ng.loop2.water4.frame1345 

   -2  1 
C         46.95915       36.79514      113.40987
C         47.03829       37.82913      112.31033
O         48.04710       38.51842      112.27821
H         46.01476       36.23401      113.48722
H         47.78623       36.06531      113.29281
H         47.08150       37.31410      114.38431
N         46.05933       38.06802      111.38469
C         44.81900       37.30988      111.22168
C         43.59863       38.07122      111.71495
O         42.54193       37.45771      111.78297
C         44.64970       36.84956      109.75046
C         44.52113       37.97009      108.74253
O         44.37530       37.69347      107.43678
O         44.54576       39.13836      109.08484
H         46.22464       38.86037      110.74733
H         44.85115       36.38804      111.82253
H         43.74100       36.21332      109.67172
H         45.52664       36.22807      109.46985
N         43.64860       39.38826      112.07922
C         42.49981       40.09393      112.63603
C         41.89589       41.09723      111.66573
O         40.87844       41.67821      112.01851
C         42.91266       40.76434      113.95045
H         44.52294       39.92086      111.96208
H         41.68345       39.37555      112.86751
H         43.29872       40.00054      114.65935
H         43.71189       41.51522      113.76823
H         42.04544       41.27207      114.42328
N         42.42070       41.33046      110.42440
C         41.78921       42.21019      109.44373
C         41.43157       41.46123      108.16510
O         41.80182       40.30751      107.99401
C         42.68980       43.42867      109.15690
C         44.05341       43.05613      108.63821
O         45.15275       43.40140      109.33504
O         44.17444       42.45403      107.58394
H         43.29251       40.86684      110.14966
H         40.83034       42.59985      109.84919
H         42.81287       43.99772      110.10369
H         42.19553       44.10142      108.42361
N         40.64313       42.07734      107.24067
C         40.17307       41.46115      106.01194
C         41.21898       41.39712      104.91973
O         42.37331       41.73527      105.13455
H         40.28119       43.01772      107.45805
H         39.35703       42.09877      105.60998
H         39.73909       40.45728      106.21889
N         40.83056       40.99415      103.67799
C         41.71379       40.90390      102.51681
C         42.28857       42.25967      102.12262
O         41.55369       43.23736      102.08293
C         40.96132       40.33908      101.28606
C         40.48279       38.91759      101.48766
N         41.00761       37.90582      100.75743
O         39.61134       38.67377      102.30838
H         39.83741       40.74330      103.55941
H         42.54521       40.19710      102.73407
H         41.66705       40.35155      100.42601
H         40.09744       40.98645      101.01389
H         41.74962       38.08029      100.06431
H         40.68011       36.93831      100.89541
N         43.57309       42.34291      101.66167
C         44.13829       43.54807      101.06397
C         44.45763       44.64506      102.06427
O         44.27649       44.42855      103.25324
H         44.13780       41.48116      101.61847
H         43.42812       43.91531      100.29242
H         45.09152       43.28267      100.55855
N         44.92666       45.87762      101.68095
C         45.10400       46.30743      100.28959
C         46.48465       46.88148       99.95795
O         46.72138       47.08236       98.77525
C         44.04646       47.38680       99.95191
C         42.62265       46.82724      100.00751
O         44.17312       48.45982      100.85205
H         45.08157       46.57599      102.42462
H         44.96264       45.45176       99.59927
H         44.22424       47.74412       98.91022
H         43.73914       49.24772      100.43360
H         42.51245       46.00482       99.26928
H         42.37933       46.44571      101.02090
H         41.89776       47.62680       99.74624
N         47.41410       47.22941      100.89852
C         48.68785       47.87987      100.56176
C         49.83624       47.01537      101.07790
O         49.81550       46.69606      102.25829
C         48.74545       49.31573      101.17386
C         47.54650       50.20784      100.74048
C         50.07678       50.02289      100.83694
C         47.42499       50.47580       99.23325
H         47.20623       47.08054      101.89582
H         48.78266       48.02636       99.47580
H         48.69157       49.22634      102.28147
H         47.63234       51.19116      101.25319
H         46.60147       49.74087      101.08687
H         50.20847       50.14239       99.74206
H         50.10946       51.03063      101.30264
H         50.94241       49.44754      101.22409
H         47.27414       49.53990       98.66416
H         46.54301       51.12424       99.04724
H         48.31767       50.99989       98.83700
N         50.91086       46.62724      100.31949
C         51.15942       47.03251       98.93385
C         52.62901       46.90420       98.53996
O         53.37543       46.17550       99.17978
C         50.28023       46.24213       97.93147
C         50.50453       44.74762       97.94929
O         49.87321       44.04085       97.18064
O         51.37578       44.17242       98.80145
H         51.64314       46.09600      100.81470
H         50.95180       48.11902       98.86449
H         50.48648       46.61586       96.90518
H         49.20736       46.40631       98.13460
N         53.11544       47.63045       97.49029
C         54.49226       47.53761       97.01564
C         55.24325       48.83179       97.27296
O         54.71535       49.87800       96.91368
C         54.54266       47.26039       95.50201
C         53.74421       46.05873       95.06702
C         53.94661       44.79558       95.65002
C         52.79330       46.19687       94.04089
C         53.20059       43.69511       95.21723
C         52.06130       45.09231       93.60268
C         52.26195       43.84261       94.19220
H         52.48258       48.28961       97.00939
H         55.00453       46.69375       97.50102
H         55.60676       47.09677       95.22149
H         54.18789       48.15841       94.94799
H         54.67384       44.65958       96.43973
H         52.62793       47.15708       93.56713
H         53.35377       42.72612       95.67330
H         51.34099       45.20711       92.80318
H         51.69203       42.98862       93.85166
N         56.50831       48.86828       97.80072
C         57.33475       47.71411       98.14144
C         56.78476       46.87669       99.27175
O         56.70217       45.66448       99.12240
C         58.68404       48.32965       98.53486
C         58.71921       49.56462       97.65959
C         57.29852       50.08264       97.84732
H         57.48017       47.10302       97.22104
H         58.65455       48.69125       99.58791
H         59.54674       47.63745       98.42492
H         59.51648       50.29529       97.90999
H         58.84453       49.24068       96.59969
H         57.18611       50.54399       98.85393
H         57.04667       50.81830       97.05272
N         56.36813       47.45894      100.43068
C         55.86006       46.67864      101.54992
C         57.01506       45.89098      102.15872
O         57.93373       46.53607      102.64559
C         55.22222       47.59215      102.62093
C         53.95723       48.28981      102.09059
C         53.33450       49.16220      103.14086
O         53.18853       50.35708      102.93875
O         52.91497       48.62791      104.30391
H         56.40168       48.48767      100.50516
H         55.04500       46.03606      101.18547
H         55.96102       48.35094      102.96295
H         54.92988       46.96705      103.49395
H         53.21411       47.52300      101.79329
H         54.19967       48.90379      101.19681
N         57.10506       44.52634      102.18480
C         56.16140       43.57277      101.63130
H         55.28397       44.01583      101.13874
H         56.68246       42.95191      100.87240
H         55.79703       42.90815      102.44138
H         57.94031       44.11481      102.62992
Ca        44.17122       39.50184      106.09421
O         45.33349       38.32467      103.66896
H         45.90389       38.03664      104.42590
H         44.46498       37.87611      103.82872
O         47.15669       39.99047      107.07212
H         47.25671       40.90799      107.43083
H         47.44726       40.05958      106.12797
O         41.92943       37.72037      105.35626
H         41.11866       38.27620      105.47111
H         42.00394       37.21314      106.20333
O         45.71304       41.79611      104.77885
H         45.01530       42.48415      104.91563
H         45.77170       41.69199      103.79636

Ca 1.0



