%chk=apoCaM-CA-Ng.loop2.water4.frame1204.chk
%nprocshared=20
%mem=10GB
%nosave
#b3lyp/svp scf=(tight,noincore,xqc) Test 
#IOP(5/87=12) Density=Current Pop=(MK,readradii) iop(6/33=2) iop(6/42=6)

apoCaM-CA-Ng.loop2.water4.frame1204 

   -2  1 
C          8.01454      102.61739      107.05810
C          7.46041      101.39458      106.37274
O          6.37019      101.48380      105.82772
H          8.97958      102.90814      106.59108
H          7.31421      103.47475      106.96309
H          8.16625      102.41476      108.13913
N          8.12802      100.20302      106.32800
C          9.43344       99.96528      106.94068
C          9.36084       98.85329      107.97751
O          8.32180       98.22546      108.12586
C         10.50255       99.69956      105.85971
C         10.29890       98.43073      105.08113
O          9.29985       98.26570      104.40016
O         11.25351       97.48257      105.10219
H          7.67567       99.42328      105.82742
H          9.76690      100.87131      107.48352
H         11.50016       99.64993      106.34573
H         10.52202      100.55686      105.15236
N         10.44222       98.60833      108.77542
C         10.48311       97.68006      109.90448
C         10.44529       96.19784      109.54594
O         10.55507       95.40515      110.47196
C          9.38949       98.02948      110.93052
H         11.28399       99.18656      108.63247
H         11.46094       97.83446      110.41295
H          9.47215       99.09748      111.22452
H          8.37169       97.84984      110.52796
H          9.50125       97.41038      111.84556
N         10.30238       95.72846      108.27014
C         10.25372       94.29662      107.96005
C         11.27908       93.86780      106.92360
O         11.92816       94.70308      106.30939
C          8.81457       93.87113      107.58322
C          7.97624       94.90383      106.85273
O          8.27463       95.40625      105.63721
O          6.96535       95.31414      107.40115
H         10.18746       96.39180      107.49236
H         10.53322       93.69728      108.85507
H          8.28944       93.69992      108.55010
H          8.81261       92.89460      107.05376
N         11.51709       92.52957      106.74097
C         12.48793       92.00245      105.79304
C         12.02138       92.18321      104.37447
O         10.89850       92.61266      104.16698
H         11.01636       91.84905      107.33212
H         12.63037       90.91243      105.95683
H         13.46474       92.50850      105.95422
N         12.84806       91.89208      103.33291
C         12.48909       92.19891      101.95179
C         12.56927       90.98645      101.05698
O         13.08642       89.95284      101.45927
C         13.45495       93.28369      101.43892
C         13.35809       94.52296      102.29328
N         14.39637       94.91362      103.06882
O         12.32168       95.16867      102.30091
H         13.79323       91.52673      103.53059
H         11.44690       92.57963      101.89072
H         13.24171       93.55698      100.38319
H         14.48984       92.87486      101.48017
H         15.27219       94.37129      103.09551
H         14.31587       95.75062      103.66489
N         12.08637       91.07350       99.78598
C         12.25748       90.03099       98.79579
C         11.59236       88.71331       99.14244
O         10.87824       88.63770      100.13224
H         11.63047       91.94836       99.48266
H         13.34751       89.87379       98.66769
H         11.82912       90.39104       97.83998
N         11.79294       87.59527       98.38090
C         12.68154       87.56099       97.21820
C         12.19068       88.49900       96.12475
O         12.92688       89.41284       95.77687
C         12.91231       86.12061       96.67783
C         13.63731       85.22410       97.69876
O         11.72526       85.51568       96.22683
H         11.32982       86.72563       98.68449
H         13.68846       87.90960       97.54174
H         13.59775       86.19682       95.80481
H         11.21525       85.19829       97.01594
H         13.84084       84.22914       97.24894
H         14.60952       85.67884       97.98735
H         13.03032       85.07803       98.61623
N         10.97089       88.33761       95.53365
C         10.47931       89.20999       94.46529
C          8.98935       89.51778       94.67334
O          8.26121       88.57807       94.96254
C         10.77760       88.55370       93.08541
C         10.53204       89.57495       91.94833
C         10.00499       87.23890       92.86511
C         10.99699       89.09182       90.57538
H         10.39684       87.52839       95.80987
H         11.07744       90.13747       94.47393
H         11.86534       88.31501       93.07757
H         11.11077       90.49862       92.17097
H          9.45782       89.83826       91.89893
H         10.21063       86.52114       93.68503
H          8.91239       87.42330       92.80626
H         10.32272       86.74738       91.92464
H         10.40235       88.22245       90.23265
H         10.86697       89.90476       89.83207
H         12.07388       88.82368       90.60827
N          8.40250       90.74824       94.53133
C          9.03313       91.99737       94.11443
C          8.45724       92.50399       92.78678
O          8.87751       93.57154       92.36000
C          8.85164       93.05253       95.22087
C          9.50762       92.63632       96.50675
O         10.71278       92.44813       96.54883
O          8.77063       92.48783       97.62404
H          7.38605       90.80101       94.70977
H         10.11640       91.88572       93.94234
H          7.77189       93.21256       95.39849
H          9.30232       94.01844       94.90400
N          7.57299       91.77321       92.03389
C          7.17478       92.16186       90.67915
C          5.69265       91.86290       90.42387
O          5.27715       90.76970       90.78723
C          8.02322       91.34314       89.68208
C          7.92095       91.89512       88.28159
C          7.27979       91.17513       87.26142
C          8.47212       93.15857       87.99072
C          7.17495       91.72092       85.97677
C          8.36858       93.69665       86.70620
C          7.71682       92.98019       85.70044
H          7.29454       90.83543       92.35654
H          7.42378       93.22007       90.50394
H          7.71653       90.27444       89.73141
H          9.09406       91.39785       89.96586
H          6.84791       90.20321       87.46264
H          8.97630       93.72929       88.76118
H          6.66967       91.16980       85.19482
H          8.78927       94.67128       86.49367
H          7.63226       93.40180       84.70730
N          4.84534       92.68771       89.71964
C          5.19470       93.94409       89.07206
C          5.63171       95.01640       90.03808
O          6.73640       95.52387       89.90034
C          3.91772       94.35263       88.31615
C          3.31895       93.00326       87.98587
C          3.51964       92.26537       89.30640
H          5.97684       93.73547       88.32192
H          3.18906       94.84594       88.99500
H          4.09110       95.02797       87.45091
H          2.26797       93.02991       87.62645
H          3.95552       92.52267       87.20725
H          2.78364       92.60815       90.06683
H          3.42619       91.16996       89.13872
N          4.79438       95.43037       91.02899
C          5.13497       96.47294       91.98040
C          4.29510       97.70038       91.67103
O          3.07673       97.59167       91.68417
C          4.85918       96.00122       93.41775
C          5.70335       94.78658       93.81536
C          5.41625       94.40871       95.24016
O          4.97392       93.30299       95.50730
O          5.66194       95.28522       96.23351
H          3.85336       95.01349       91.09584
H          6.21308       96.71734       91.91497
H          3.78140       95.74411       93.52732
H          5.09246       96.84175       94.10824
H          6.78320       95.02938       93.71913
H          5.47271       93.92895       93.14507
N          4.84165       98.91363       91.37277
C          6.26556       99.17136       91.34039
H          6.75499       98.53513       90.57236
H          6.45154      100.23495       91.08282
H          6.70992       98.97230       92.33937
H          4.20899       99.70148       91.16466
Ca         9.98673       95.09900      104.21847
O          8.01376       92.97318      103.37094
H          7.34997       93.17097      102.66391
H          7.47861       92.88213      104.19895
O         10.33858       97.56312      101.67403
H         11.14450       97.99721      102.05182
H         10.46706       97.61066      100.69368
O          9.59510       94.52385      100.89506
H          8.77388       94.28822      100.39501
H         10.33620       94.23809      100.30386
O          7.06543       96.21100      102.78098
H          6.71682       95.66269      102.03391
H          6.52699       95.93244      103.56386

Ca 1.0



