%chk=apoCaM-CA-Ng.loop2.water4.frame1285.chk
%nprocshared=20
%mem=10GB
%nosave
#b3lyp/svp scf=(tight,noincore,xqc) Test 
#IOP(5/87=12) Density=Current Pop=(MK,readradii) iop(6/33=2) iop(6/42=6)

apoCaM-CA-Ng.loop2.water4.frame1285 

   -2  1 
C         72.13661       55.41766        7.58307
C         72.37356       56.73863        8.26196
O         72.10535       57.75103        7.63041
H         71.78676       55.58407        6.54147
H         73.07793       54.83250        7.54222
H         71.33428       54.84558        8.07796
N         72.90636       56.87111        9.51497
C         73.34556       55.77304       10.38907
C         74.16722       56.22189       11.61680
O         74.80935       55.34425       12.17861
C         72.17392       54.87341       10.87963
C         71.08473       55.65825       11.56146
O         70.11601       55.08786       12.03379
O         71.17599       56.99734       11.61861
H         73.05888       57.84127        9.80763
H         74.05296       55.15592        9.79241
H         72.57153       54.10427       11.57766
H         71.71782       54.31247       10.05241
N         74.22405       57.50610       12.10474
C         75.11571       57.89653       13.19835
C         74.39193       58.40092       14.44263
O         75.07491       58.65499       15.42579
C         76.06611       58.98298       12.68223
H         73.65613       58.25700       11.69721
H         75.73087       57.03034       13.52360
H         75.48859       59.88249       12.37346
H         76.79495       59.28032       13.46552
H         76.63003       58.60764       11.80202
N         73.04226       58.59969       14.48636
C         72.34417       59.10692       15.66743
C         71.20352       58.16585       16.03843
O         70.34093       57.91715       15.21649
C         71.90017       60.57532       15.42770
C         71.08669       60.77288       14.18004
O         69.88851       60.18521       14.06495
O         71.54761       61.39621       13.23663
H         72.47998       58.42928       13.64169
H         73.03185       59.16310       16.53949
H         72.82897       61.18031       15.32612
H         71.34188       60.96081       16.30759
N         71.16401       57.56663       17.26024
C         70.10261       56.67003       17.70174
C         68.83063       57.41743       18.05769
O         68.55778       57.53220       19.24510
H         71.94444       57.72874       17.91490
H         70.46094       56.19411       18.64251
H         69.92431       55.84651       16.97738
N         67.99256       57.93697       17.10884
C         66.80832       58.72564       17.44900
C         65.51617       58.05789       17.01558
O         65.52996       57.04203       16.33525
C         66.91221       60.14699       16.84545
C         66.71667       60.17775       15.34211
N         65.72849       60.91835       14.78772
O         67.44638       59.52514       14.61670
H         68.19739       57.77197       16.11955
H         66.75354       58.84272       18.55270
H         67.89968       60.58242       17.11115
H         66.13728       60.79230       17.31219
H         65.09002       61.47760       15.37106
H         65.60211       60.93401       13.76450
N         64.34089       58.60383       17.42216
C         63.02571       58.08974       17.09628
C         62.60000       58.40494       15.66689
O         63.45980       58.58422       14.81676
H         64.37781       59.42027       18.05220
H         62.35014       58.64737       17.77261
H         62.92360       57.01038       17.34037
N         61.28565       58.59914       15.32621
C         60.17712       58.48277       16.27012
C         59.04371       57.68975       15.63778
O         57.91290       58.15587       15.60907
C         59.75642       59.90829       16.73393
C         58.88148       59.87012       17.98959
O         60.89571       60.67236       17.04531
H         61.07214       58.92338       14.36910
H         60.49512       57.90019       17.15497
H         59.18942       60.41551       15.91593
H         61.16932       61.14555       16.21472
H         59.45130       59.41188       18.82786
H         58.60950       60.90630       18.28375
H         57.95042       59.29225       17.83350
N         59.30370       56.48750       15.04855
C         58.28808       55.68657       14.37251
C         58.35768       54.25179       14.89632
O         59.41181       53.64701       14.76300
C         58.51079       55.73531       12.82868
C         58.33460       57.19646       12.32525
C         57.52570       54.78991       12.10331
C         58.64102       57.39513       10.84048
H         60.27909       56.15212       15.02494
H         57.28863       56.12345       14.54133
H         59.54630       55.39454       12.60606
H         59.02691       57.86448       12.87824
H         57.29425       57.53835       12.52497
H         56.47432       55.09286       12.29533
H         57.70503       54.77993       11.01048
H         57.65851       53.74095       12.44036
H         58.51920       58.46945       10.58507
H         59.68744       57.09548       10.62312
H         57.94621       56.82230       10.19512
N         57.29201       53.59215       15.44567
C         55.97578       54.18712       15.66381
C         54.86837       53.15227       15.76983
O         55.13897       51.96282       15.83080
C         56.00360       55.09033       16.92123
C         56.29714       54.30498       18.17572
O         55.38942       54.25902       19.16952
O         57.35673       53.71163       18.30278
H         57.43700       52.59969       15.68991
H         55.69280       54.75865       14.75626
H         55.02320       55.59684       17.03830
H         56.77304       55.88133       16.81658
N         53.57090       53.56015       15.79542
C         52.42787       52.65965       15.84032
C         51.42029       53.06457       14.77175
O         51.08853       54.24566       14.72321
C         51.82193       52.71699       17.25327
C         50.69019       51.73042       17.40986
C         49.41561       52.01117       16.88687
C         50.90764       50.50631       18.06547
C         48.38060       51.08188       17.01369
C         49.87156       49.57581       18.18221
C         48.60907       49.86339       17.65727
H         53.37877       54.57492       15.80460
H         52.75405       51.60757       15.69146
H         51.49215       53.73935       17.53961
H         52.64458       52.43495       17.94819
H         49.22050       52.94957       16.38437
H         51.88320       50.26294       18.46826
H         47.40233       51.30612       16.60921
H         50.04946       48.62965       18.67630
H         47.80808       49.14199       17.74880
N         50.82680       52.17817       13.91339
C         50.97435       50.72591       13.94358
C         52.16488       50.22727       13.13760
O         52.31701       49.01475       13.04357
C         49.65917       50.25756       13.30082
C         49.45233       51.30239       12.22109
C         49.79234       52.58100       12.97750
H         51.01509       50.31967       14.97531
H         49.64516       49.20174       12.95407
H         48.83573       50.38750       14.04093
H         50.22479       51.13419       11.43668
H         48.45340       51.30942       11.73551
H         50.12550       53.37288       12.27141
H         48.91593       52.93917       13.56336
N         53.02036       51.07360       12.49716
C         54.09128       50.61951       11.61291
C         53.83493       51.12328       10.20085
O         53.07359       52.06685       10.03165
C         55.44838       51.14742       12.12888
C         55.93364       50.43375       13.39798
C         56.49612       49.06399       13.13054
O         55.79465       48.17228       12.68298
O         57.78976       48.81093       13.40908
H         52.88849       52.09234       12.59282
H         54.09690       49.51568       11.55854
H         55.32111       52.23317       12.34110
H         56.25573       51.06801       11.37323
H         55.10928       50.35072       14.13103
H         56.75382       51.04538       13.83249
N         54.39906       50.53623        9.10655
C         55.23832       49.35529        9.16362
H         56.15294       49.54329        9.75738
H         54.67385       48.50513        9.60280
H         55.54570       49.06274        8.13814
H         54.18818       50.92524        8.17478
Ca        69.84911       58.53488       12.55658
O         67.18585       59.81712       11.41838
H         66.75360       59.52695       10.57622
H         67.35464       60.78417       11.29074
O         68.04528       55.97279       14.17940
H         68.39089       55.06232       14.00704
H         67.35470       55.83989       14.87472
O         66.83893       56.68577       11.52383
H         66.66554       56.88354       10.56937
H         66.08156       57.10318       12.00663
O         70.37235       59.19355        9.72822
H         71.12481       59.43470       10.32551
H         69.63223       59.78604       10.01225

Ca 1.0



