%chk=apoCaM-CA-Ng.loop1.water3.frame767.chk
%nprocshared=20
%mem=10GB
%nosave
#b3lyp/svp scf=(tight,noincore,xqc) Test 
#IOP(5/87=12) Density=Current Pop=(MK,readradii) iop(6/33=2) iop(6/42=6)

apoCaM-CA-Ng.loop1.water3.frame767 

   0  1 
C         66.17454       16.38418       -2.91568
C         67.08134       17.55961       -3.14182
O         67.16425       18.02533       -4.26911
H         65.13652       16.66521       -3.19438
H         66.50021       15.52943       -3.54351
H         66.17474       16.06646       -1.85163
N         67.77723       18.10696       -2.10440
C         68.61190       19.29474       -2.23212
C         70.07231       19.02540       -1.89565
O         70.38538       18.65206       -0.77796
C         68.00379       20.45590       -1.42521
C         67.73712       20.33107        0.06558
O         67.21368       21.29279        0.60521
O         68.00303       19.25554        0.84737
H         67.66572       17.68443       -1.17753
H         68.59357       19.64745       -3.28610
H         67.01714       20.67300       -1.89226
H         68.64667       21.34970       -1.58162
N         71.03514       19.21169       -2.84753
C         72.45602       18.96644       -2.61829
C         73.00055       19.88066       -1.53636
O         72.92650       21.09308       -1.67845
C         73.25088       19.15697       -3.93002
C         74.75386       18.86532       -3.76051
C         75.48022       18.93038       -5.10909
C         76.98328       18.66465       -4.94689
N         77.65374       18.65964       -6.24710
H         70.74286       19.52358       -3.78645
H         72.58107       17.90191       -2.31829
H         73.11998       20.19445       -4.31080
H         72.83411       18.45282       -4.68347
H         74.88738       17.84782       -3.33189
H         75.20297       19.60670       -3.06335
H         75.33570       19.93368       -5.56668
H         75.04535       18.16249       -5.78581
H         77.14004       17.67895       -4.45495
H         77.43169       19.45336       -4.30187
H         77.26866       17.89122       -6.84366
H         77.52022       19.57873       -6.72801
H         78.67655       18.49507       -6.10602
N         73.61403       19.34047       -0.44574
C         74.22996       20.13255        0.62153
C         75.01275       19.23937        1.59078
O         74.77419       18.03937        1.61503
C         73.15610       20.95638        1.37888
C         72.03916       20.10134        1.91950
O         70.89285       20.29466        1.54893
O         72.28797       19.13439        2.82314
H         73.68187       18.31350       -0.41434
H         74.95555       20.81701        0.14167
H         72.72151       21.71209        0.69306
H         73.60033       21.51667        2.22049
N         75.96340       19.71006        2.45065
C         76.47749       21.06910        2.53995
C         77.30170       21.49322        1.34263
O         77.42084       20.75908        0.37093
H         76.36974       19.03050        3.10893
H         77.17009       21.10816        3.40962
H         75.66996       21.79553        2.73612
N         77.94170       22.69615        1.38331
C         78.81001       23.18825        0.31608
C         80.01821       22.29077        0.11390
O         80.51483       22.22592       -1.00221
C         79.31804       24.61010        0.62933
C         78.18862       25.58599        0.80174
O         78.03214       26.23420        1.97186
O         77.41202       25.79909       -0.11550
H         77.80786       23.28196        2.22211
H         78.22409       23.22752       -0.63040
H         79.96724       24.96922       -0.19945
H         79.92702       24.58534        1.56063
N         80.54839       21.57670        1.14962
C         81.70392       20.70628        1.01410
C         81.33717       19.24610        1.15912
O         82.23802       18.42414        1.06905
H         80.11107       21.63314        2.08145
H         82.45963       20.99300        1.77651
H         82.17785       20.81748        0.01494
N         80.04294       18.83647        1.32404
C         79.63864       17.43573        1.32755
C         78.91809       17.09394        2.61717
O         78.54305       17.99385        3.35107
C         78.69060       17.18433        0.12413
C         79.31947       17.61463       -1.20655
O         78.35212       15.82370        0.05327
H         79.29328       19.53324        1.39626
H         80.53320       16.78161        1.24222
H         77.76850       17.79555        0.28351
H         77.50408       15.76286       -0.45970
H         78.60514       17.42655       -2.03610
H         79.54615       18.70234       -1.20222
H         80.25429       17.04749       -1.39605
N         78.67914       15.79270        2.94863
C         77.88455       15.38827        4.11149
C         78.46993       15.92454        5.42354
O         77.73632       15.97071        6.40199
C         77.69947       13.82931        4.13393
C         77.04736       13.26543        2.83233
C         76.91537       13.32402        5.36099
C         75.61120       13.72651        2.56469
H         79.06767       15.07131        2.32758
H         76.88629       15.86542        3.99886
H         78.71564       13.38032        4.20074
H         77.04514       12.15510        2.88978
H         77.65313       13.52189        1.94174
H         75.90210       13.77307        5.40719
H         76.82070       12.21770        5.32175
H         77.45010       13.55590        6.30298
H         75.55608       14.82757        2.44874
H         75.25305       13.26482        1.61992
H         74.92861       13.40119        3.37551
N         79.75017       16.39326        5.51381
C         80.29839       17.01189        6.72087
C         81.50227       16.24562        7.23918
O         81.95674       15.30300        6.60427
C         80.68311       18.50136        6.44375
C         81.67474       18.67889        5.28143
O         79.54641       19.30162        6.23715
H         80.36733       16.32200        4.69339
H         79.54787       17.00508        7.54175
H         81.17367       18.90778        7.35169
H         78.96952       18.85935        5.56845
H         81.22740       18.36616        4.31560
H         81.95954       19.74752        5.18834
H         82.59704       18.08638        5.46045
N         82.07102       16.63210        8.41637
C         83.27613       16.04941        8.98649
C         82.95622       15.42665       10.33617
O         83.15608       14.23023       10.49224
C         84.37038       17.14712        9.06008
C         85.67125       16.64619        9.68751
O         83.91278       18.26275        9.78422
H         81.63257       17.40797        8.93547
H         83.66822       15.24116        8.32794
H         84.58513       17.44592        8.00468
H         84.21095       19.07727        9.30061
H         85.50563       16.35127       10.74585
H         86.06565       15.77761        9.12084
H         86.42744       17.45972        9.66799
N         82.44663       16.17536       11.35454
C         82.10160       15.62271       12.65850
C         80.94327       16.38922       13.26009
O         80.96204       17.61339       13.25431
C         83.31720       15.57509       13.60643
C         83.91337       16.94786       13.97084
C         85.12511       16.83768       14.91492
C         84.77163       16.26083       16.29998
N         85.94785       16.22482       17.16821
H         82.27102       17.17591       11.19058
H         81.77479       14.56519       12.53772
H         84.10931       14.95021       13.13947
H         82.97655       15.06398       14.53027
H         83.15093       17.58935       14.45995
H         84.24551       17.44839       13.03582
H         85.53467       17.86100       15.06114
H         85.91125       16.21459       14.43627
H         84.37957       15.22705       16.20468
H         83.98658       16.89130       16.77433
H         86.32312       17.19053       17.30949
H         85.67537       15.82857       18.09705
H         86.68583       15.61565       16.74587
N         79.90243       15.72580       13.83384
C         78.77028       16.43346       14.40464
C         77.95449       17.10128       13.29942
O         77.78530       18.30940       13.37768
C         77.94018       15.51585       15.32693
C         76.89403       16.31436       16.12004
C         76.16052       15.42882       17.08430
O         76.83599       14.77318       18.04823
O         74.94824       15.31067       17.01025
H         79.93864       14.69675       13.90182
H         79.17364       17.21588       15.08928
H         78.64071       15.05383       16.05792
H         77.45235       14.69446       14.77496
H         76.17326       16.79152       15.42119
H         77.40035       17.11458       16.70361
N         77.43738       16.44364       12.21570
C         77.60086       15.03214       11.92707
H         78.67354       14.77263       11.82295
H         77.11936       14.40456       12.69635
H         77.10954       14.78963       10.96071
H         76.91332       16.99718       11.51992
Ca        68.88176       17.15137        0.84767
O         71.84543       15.89907        1.08171
H         72.62555       16.33939        0.66113
H         71.39753       15.42566        0.33622
O         68.67686       19.51469        3.73134
H         68.75717       20.43213        3.36733
H         67.83689       19.52975        4.25503
O         70.36925       16.35615        4.11985
H         71.04017       15.65722        4.32492
H         69.71047       16.29125        4.85636

Ca 1.0



