%chk=apoCaM-CA-Ng.loop1.water2.frame1310.chk
%nprocshared=20
%mem=10GB
%nosave
#b3lyp/svp scf=(tight,noincore,xqc) Test 
#IOP(5/87=12) Density=Current Pop=(MK,readradii) iop(6/33=2) iop(6/42=6)

apoCaM-CA-Ng.loop1.water2.frame1310 

   0  1 
C         26.35241       32.74613       72.10744
C         26.17126       32.84228       73.59295
O         26.42317       33.90665       74.14013
H         25.73123       33.52082       71.61144
H         27.41952       32.91884       71.85077
H         26.05209       31.74903       71.72440
N         25.77560       31.75622       74.32136
C         25.61354       31.79253       75.77329
C         26.78128       31.09673       76.44269
O         26.59938       30.23800       77.29554
C         24.22882       31.23998       76.19102
C         23.98085       29.78245       75.86124
O         22.79941       29.22800       76.19020
O         24.82915       29.09180       75.31769
H         25.64139       30.86251       73.82769
H         25.66694       32.84369       76.12593
H         23.44369       31.84742       75.69265
H         24.11291       31.36371       77.28953
N         28.04214       31.44647       76.07579
C         29.23925       30.87205       76.66582
C         29.42193       31.41328       78.06964
O         29.50289       30.59550       78.97568
C         30.47410       31.06569       75.75675
C         30.19789       30.42952       74.38050
C         31.35864       30.58795       73.40295
C         30.93681       30.05874       72.02326
N         32.00615       30.22075       71.04310
H         28.14989       32.13811       75.32138
H         29.11608       29.76484       76.72105
H         31.35114       30.56459       76.22336
H         30.72878       32.13354       75.62187
H         29.31494       30.92031       73.92243
H         29.96732       29.34768       74.50495
H         32.24665       30.03451       73.77904
H         31.61498       31.66570       73.31066
H         30.04130       30.62262       71.67430
H         30.66125       28.98288       72.09811
H         32.26714       31.23032       70.96197
H         32.83925       29.65714       71.32747
H         31.66537       29.88435       70.11344
N         29.41762       32.74358       78.39722
C         29.26548       33.88812       77.48526
C         27.86102       34.47883       77.59948
O         27.06378       33.96829       78.37210
C         30.36070       34.94337       77.78185
C         30.20248       35.57332       79.14306
O         29.15632       35.22116       79.91374
O         31.01559       36.38543       79.54253
H         29.46267       32.94516       79.40643
H         29.38685       33.58043       76.43881
H         30.32924       35.75226       77.02107
H         31.35592       34.45071       77.71333
N         27.46839       35.53087       76.82503
C         26.10310       36.03895       76.85059
C         25.76709       36.88834       78.06132
O         26.64658       37.24935       78.83088
H         28.12341       35.91607       76.12822
H         25.40206       35.18194       76.76996
H         25.93655       36.68969       75.96542
N         24.46681       37.25654       78.26041
C         24.00181       38.20695       79.27456
C         23.03615       39.21682       78.62696
O         22.57173       38.95179       77.52572
C         23.25991       37.43915       80.39227
C         24.17821       36.52628       81.14787
O         23.94509       35.33009       81.19611
O         25.24051       37.02887       81.80819
H         23.75774       36.83153       77.64220
H         24.87042       38.74666       79.70853
H         22.42163       36.85694       79.94990
H         22.82010       38.12142       81.13831
N         22.62681       40.37933       79.22303
C         23.16899       40.92782       80.45376
C         24.58730       41.40123       80.26382
O         25.08611       41.40779       79.14875
H         21.90341       40.94085       78.74697
H         23.10657       40.19431       81.27311
H         22.57283       41.81236       80.76653
N         25.30579       41.80004       81.34730
C         26.69447       42.24985       81.28403
C         27.56177       41.23615       80.55201
O         27.42255       40.04505       80.78281
C         27.21430       42.53933       82.71146
C         28.66764       43.01865       82.72617
O         27.09560       41.39055       83.50954
H         24.84332       41.74734       82.26819
H         26.73354       43.20896       80.72074
H         26.57556       43.35916       83.12135
H         26.81538       41.68746       84.41453
H         29.34819       42.22486       82.35034
H         28.78553       43.92652       82.09801
H         28.96104       43.26503       83.76783
N         28.47150       41.67694       79.63181
C         29.30795       40.84195       78.77430
C         30.18164       39.90859       79.60294
O         29.68410       38.90419       80.09306
C         28.44119       40.09923       77.70778
C         27.58825       41.12174       76.90508
C         29.31918       39.25933       76.75846
C         26.54631       40.47684       75.98801
H         28.58038       42.69574       79.51241
H         29.98033       41.53296       78.21594
H         27.75007       39.41881       78.24308
H         28.24807       41.79098       76.31130
H         27.01846       41.76013       77.60787
H         28.69853       38.68718       76.03964
H         30.01289       39.91488       76.18938
H         29.91518       38.51330       77.32269
H         27.01865       39.88206       75.18208
H         25.86433       39.82792       76.57884
H         25.93961       41.27423       75.50778
N         31.50155       40.19215       79.80984
C         32.40353       39.31358       80.55261
C         32.84812       39.89771       81.89140
O         33.59548       39.22395       82.58474
C         33.62211       38.91687       79.67949
C         34.52546       40.09751       79.30657
O         33.17681       38.29724       78.49844
H         31.87594       41.07603       79.43459
H         31.88846       38.37336       80.79920
H         34.25618       38.20892       80.26857
H         33.33652       37.32172       78.59300
H         33.98659       40.83638       78.67981
H         34.90832       40.60255       80.21822
H         35.39598       39.72667       78.72508
N         32.44812       41.12975       82.32858
C         32.94019       41.70487       83.58143
C         32.46173       40.89132       84.77946
O         31.26391       40.85129       85.02511
C         32.48605       43.18068       83.70669
C         33.07052       43.86554       84.94472
O         32.89981       43.88793       82.56439
H         31.82233       41.69370       81.73738
H         34.05214       41.70113       83.53601
H         31.37381       43.19414       83.78126
H         32.18759       44.54736       82.35303
H         32.74291       43.35407       85.87281
H         34.18038       43.86175       84.89701
H         32.71881       44.91803       84.98822
N         33.35365       40.20057       85.55666
C         32.98482       39.39494       86.72272
C         31.92523       38.38942       86.33967
O         30.83173       38.39701       86.89196
C         32.56219       40.29067       87.91030
C         33.66425       41.26067       88.38096
C         34.95097       40.53593       88.82540
C         36.04028       41.47993       89.35501
N         35.65981       42.12289       90.61313
H         34.34890       40.20952       85.28847
H         33.86201       38.79831       87.04379
H         32.28752       39.63896       88.76941
H         31.66362       40.88490       87.63525
H         33.24121       41.83267       89.23217
H         33.90932       41.97701       87.56819
H         35.39354       40.01865       87.95009
H         34.71412       39.77686       89.60257
H         36.28438       42.24866       88.58877
H         36.95606       40.87315       89.53402
H         35.42764       41.39726       91.33008
H         36.46818       42.68809       90.95948
H         34.84757       42.76378       90.47550
N         32.18324       37.52503       85.32384
C         31.13290       36.75030       84.69183
C         31.41705       36.65163       83.20063
O         30.63293       37.21858       82.45975
C         30.83925       35.40830       85.41584
C         29.58941       34.70905       84.85245
C         28.34458       35.53458       85.07656
O         27.68196       36.07025       84.03390
O         27.95189       35.75196       86.21130
H         33.09826       37.60958       84.85600
H         30.20028       37.35139       84.77333
H         30.67354       35.59689       86.49845
H         31.68999       34.70839       85.33529
H         29.44704       33.72204       85.34193
H         29.75529       34.51270       83.77472
N         32.49671       36.03222       82.63590
C         33.57297       35.35905       83.33037
H         34.53344       35.84871       83.06593
H         33.48371       35.38902       84.42675
H         33.61040       34.30027       82.99957
H         32.57714       36.05371       81.60815
Ca        28.52186       35.73264       81.98457
O         28.45418       38.89340       83.36115
H         27.49432       38.78000       83.14643
H         28.46988       39.08201       84.33288
O         26.44221       34.15629       81.02283
H         26.30930       33.20158       80.80361
H         26.31911       34.20951       82.00325

Ca 1.0



