%chk=apoCaM-CA-Ng.loop1.water1.frame896.chk
%nprocshared=20
%mem=10GB
%nosave
#b3lyp/svp scf=(tight,noincore,xqc) Test 
#IOP(5/87=12) Density=Current Pop=(MK,readradii) iop(6/33=2) iop(6/42=6)

apoCaM-CA-Ng.loop1.water1.frame896 

   0  1 
C         34.46462        4.99889       47.55148
C         33.88309        6.38007       47.57584
O         32.81340        6.56529       48.14019
H         35.45413        5.00468       48.05445
H         33.80043        4.28322       48.08288
H         34.58658        4.66157       46.50137
N         34.55112        7.41575       46.99070
C         34.05189        8.78800       47.01648
C         32.69524        8.98555       46.26359
O         32.25929        7.79120       45.66573
C         35.15105        9.81129       46.61133
C         35.88925        9.76197       45.27477
O         35.64228        8.88969       44.27259
O         36.79832       10.56023       45.11359
H         35.46728        7.22328       46.55739
H         33.86439        9.02832       48.08896
H         35.94976        9.69986       47.37840
H         34.72536       10.83136       46.72817
N         31.67507        9.50124       47.19685
C         30.29314        9.45584       46.68809
C         30.00932       10.61690       45.75651
O         29.92198       11.75057       46.20817
C         29.33496        9.38619       47.88829
C         27.87771        9.09831       47.49650
C         27.05411        8.78089       48.75314
C         25.61712        8.37433       48.40791
N         24.89217        7.96897       49.61288
H         31.92755       10.46272       47.52680
H         30.13488        8.50253       46.14230
H         29.39815       10.31209       48.50187
H         29.68689        8.53609       48.51478
H         27.85482        8.20384       46.83606
H         27.44415        9.96087       46.94432
H         27.04466        9.65894       49.43560
H         27.53441        7.92703       49.28085
H         25.63558        7.51808       47.69700
H         25.09247        9.22588       47.92196
H         23.91955        7.68847       49.35206
H         25.36760        7.14921       50.05745
H         24.84956        8.76073       50.29458
N         29.89566       10.38848       44.41965
C         29.58533       11.41795       43.43334
C         28.37992       10.98951       42.61166
O         28.00936        9.82435       42.66829
C         30.82692       11.69151       42.55475
C         31.44556       10.43799       41.99453
O         30.74612        9.63635       41.16989
O         32.58991       10.13811       42.29794
H         30.05250        9.42792       44.07695
H         29.30986       12.36177       43.95214
H         31.58433       12.19780       43.19251
H         30.58531       12.37604       41.71688
N         27.63824       11.86020       41.87311
C         27.83247       13.29899       41.78626
C         26.79977       13.99424       42.63355
O         26.23185       13.36380       43.51283
H         26.79596       11.48608       41.41198
H         27.70755       13.58405       40.71857
H         28.82700       13.64946       42.11399
N         26.50971       15.30955       42.44178
C         25.44466       15.98357       43.17860
C         24.10884       15.33242       42.83284
O         23.75348       15.28325       41.66290
C         25.43865       17.49090       42.84398
C         24.42871       18.26133       43.65479
O         24.84066       19.22191       44.50451
O         23.23470       18.03647       43.53698
H         27.04101       15.83201       41.72757
H         25.65313       15.89640       44.26930
H         25.24344       17.65104       41.76189
H         26.44776       17.89804       43.07644
N         23.31387       14.81699       43.81330
C         22.02615       14.18417       43.55817
C         22.11585       12.77750       42.98499
O         21.07060       12.16586       42.81876
H         23.60624       14.92517       44.79631
H         21.40240       14.84100       42.91356
H         21.50091       14.07548       44.53180
N         23.30879       12.17974       42.70285
C         23.45617       10.79373       42.27068
C         24.08219       10.73841       40.88593
O         24.49841       11.76294       40.36121
C         24.35976       10.04053       43.29241
C         23.79610       10.07997       44.71465
O         24.52088        8.69679       42.91609
H         24.16719       12.71236       42.82393
H         22.46180       10.29962       42.21412
H         25.35227       10.55176       43.30111
H         25.41518        8.40673       43.23704
H         24.48999        9.54796       45.40097
H         23.69697       11.12556       45.07342
H         22.80504        9.58138       44.75124
N         24.15666        9.54764       40.22508
C         24.78327        9.38572       38.91615
C         23.78384        9.61753       37.78481
O         24.17996        9.57026       36.62885
C         25.53892        8.01366       38.85947
C         26.49896        7.85316       37.65032
C         24.57126        6.81158       38.87655
C         27.61724        8.89647       37.60420
H         23.69566        8.73679       40.65525
H         25.54636       10.18326       38.81763
H         26.17337        7.95006       39.77284
H         25.94483        7.86213       36.68975
H         26.99504        6.86070       37.73452
H         25.14551        5.86055       38.88957
H         23.92639        6.79766       39.77544
H         23.92232        6.81684       37.97539
H         28.30561        8.65816       36.76660
H         27.21947        9.91512       37.42710
H         28.19755        8.88238       38.55168
N         22.48438        9.95050       38.04090
C         21.53325       10.28354       36.99000
C         21.17415        9.04627       36.19436
O         20.86439        8.01979       36.78267
C         20.24057       10.92691       37.55712
C         20.52253       12.18610       38.39683
O         19.36966       11.26016       36.50137
H         22.16354       10.02173       39.01444
H         21.98552       11.05834       36.32914
H         19.71957       10.19358       38.20918
H         19.82050       11.94726       35.94029
H         21.06937       12.94448       37.79647
H         19.56286       12.62718       38.73838
H         21.12248       11.95183       39.29915
N         21.11974        9.11436       34.83864
C         20.71989        8.00678       33.98055
C         21.81014        7.73197       32.95575
O         22.19170        6.57895       32.80405
C         19.34309        8.32290       33.34364
C         18.78722        7.14963       32.52652
O         19.41548        9.47077       32.53638
H         21.31037       10.02625       34.39996
H         20.56161        7.08007       34.57788
H         18.63236        8.48733       34.19197
H         18.63291       10.03977       32.76178
H         18.70684        6.24011       33.16076
H         17.76997        7.39819       32.15405
H         19.43665        6.92431       31.65616
N         22.36827        8.74384       32.22693
C         23.36638        8.53998       31.18456
C         24.68342        9.22863       31.48885
O         24.71158       10.24212       32.17532
C         22.83259        9.13990       29.87654
C         21.64975        8.34392       29.31086
C         21.08199        9.00781       28.04909
C         20.25409       10.26423       28.37449
N         19.80015       10.91919       27.14984
H         22.06217        9.71339       32.39407
H         23.58085        7.45831       31.03655
H         23.63313        9.14120       29.10359
H         22.55696       10.19745       30.07747
H         20.83825        8.21329       30.05809
H         22.03931        7.33794       29.04165
H         20.40895        8.28551       27.53971
H         21.91699        9.24964       27.35486
H         20.83997       10.99798       28.96470
H         19.37233        9.96114       28.98387
H         20.62687       11.28324       26.62200
H         19.26521       10.24896       26.55183
H         19.18101       11.72324       27.40164
N         25.81266        8.76671       30.87685
C         27.10766        9.43416       30.91407
C         27.61971        9.62891       32.34074
O         27.86662       10.77462       32.68903
C         28.11205        8.69708       29.99054
C         29.45622        9.42685       29.85729
C         30.38788        8.67169       28.95044
O         31.56818        8.22333       29.41926
O         30.08443        8.46459       27.78589
H         25.72874        7.91322       30.30087
H         26.97267       10.44365       30.46151
H         27.65860        8.62409       28.97630
H         28.28994        7.66392       30.33467
H         29.93059        9.52470       30.85659
H         29.29193       10.44378       29.43962
N         27.79852        8.62821       33.25286
C         27.50631        7.22889       33.03399
H         26.43866        7.09157       32.76910
H         28.16406        6.79892       32.25975
H         27.70093        6.66172       33.96904
H         28.14178        8.88925       34.19063
Ca        33.87622        7.56931       44.17295
O         31.93263        5.27077       43.78809
H         31.80649        4.73652       44.61209
H         32.45985        4.68480       43.18889

Ca 1.0



