%chk=apoCaM-CA-Ng.loop4.water4.frame338.chk
%nprocshared=20
%mem=10GB
%nosave
#b3lyp/svp scf=(tight,noincore,xqc) Test 
#IOP(5/87=12) Density=Current Pop=(MK,readradii) iop(6/33=2) iop(6/42=6)

apoCaM-CA-Ng.loop4.water4.frame338 

   -3  1 
C         78.24383       74.04932       44.78420
C         78.56083       72.62484       44.45733
O         79.69421       72.22241       44.65383
H         77.44852       74.08006       45.55760
H         79.14453       74.56584       45.18359
H         77.90116       74.57533       43.87066
N         77.59054       71.79153       43.98087
C         77.79379       70.37481       43.70287
C         78.23998       69.66021       45.00175
O         79.29243       68.78007       44.78555
C         78.61225       70.11509       42.40372
C         80.01610       70.65043       42.32190
O         80.98868       70.16634       43.11263
O         80.29657       71.48765       41.47882
H         76.63892       72.16937       43.85946
H         76.80535       69.93627       43.43252
H         78.03097       70.56856       41.57041
H         78.64956       69.01975       42.21200
N         77.07338       69.07156       45.69936
C         77.19246       68.37965       47.01083
C         77.44279       66.89296       46.79915
O         76.52129       66.11483       47.00867
C         78.12279       69.06770       48.05760
C         78.10143       68.34831       49.44042
C         77.76222       70.55590       48.23599
C         76.72674       68.26412       50.12301
H         76.39006       69.85562       45.82717
H         76.16644       68.43105       47.44127
H         79.16874       69.02330       47.69264
H         78.79398       68.88236       50.12767
H         78.48753       67.31369       49.32761
H         78.42555       71.02444       48.99361
H         77.89924       71.11446       47.28843
H         76.70889       70.68360       48.55963
H         76.83494       67.77045       51.11170
H         76.29127       69.26925       50.29499
H         76.01810       67.65347       49.52721
N         78.62802       66.42294       46.32604
C         78.81556       65.04317       45.90738
C         78.82363       64.08995       47.10427
O         77.95756       63.22739       47.13509
C         80.02887       64.94564       44.95141
C         80.19832       63.57092       44.37383
O         79.29994       63.06176       43.72220
O         81.35671       62.90687       44.54398
H         79.40485       67.07356       46.18903
H         77.94978       64.77473       45.25734
H         80.96761       65.27201       45.42623
H         79.85703       65.64769       44.10471
N         79.70488       64.15703       48.14818
C         80.78835       65.12212       48.23748
C         81.57981       65.04777       49.53096
O         81.18731       64.30923       50.42303
H         79.58045       63.47000       48.90721
H         80.36680       66.14215       48.17606
H         81.46815       64.91619       47.41306
N         82.69889       65.80286       49.76786
C         83.39967       66.69035       48.84112
C         82.48163       67.76446       48.28826
O         82.05933       67.64007       47.14714
C         84.15470       65.87598       47.75791
C         85.05775       66.73950       46.91876
O         84.92630       66.77073       45.70592
O         86.03799       67.45839       47.49853
H         83.10412       65.73020       50.70814
H         84.21544       67.19597       49.40174
H         83.47239       65.32935       47.08682
H         84.79413       65.12467       48.26774
N         82.14428       68.88999       48.98119
C         82.66859       69.30417       50.27324
C         82.11994       68.52068       51.42993
O         81.29429       67.64099       51.23103
H         81.52558       69.55286       48.51045
H         82.35822       70.35789       50.45131
H         83.77721       69.28358       50.25685
N         82.49089       68.85518       52.70164
C         81.92944       68.19197       53.87081
C         80.85364       69.05555       54.52260
O         80.11184       68.53526       55.34459
C         83.00583       67.85538       54.92620
C         84.35799       67.31690       54.42563
C         84.30825       66.08702       53.56271
N         84.97020       66.06416       52.38020
O         83.72139       65.08877       53.95131
H         83.13357       69.65088       52.83861
H         81.44524       67.24570       53.54254
H         82.55955       67.14595       55.65791
H         83.26182       68.78693       55.47941
H         84.96031       67.07378       55.32708
H         84.89275       68.12671       53.88341
H         85.49568       66.88723       52.04862
H         84.98787       65.21096       51.80282
N         80.73068       70.38697       54.23013
C         79.70528       71.25916       54.79544
C         80.28695       72.33213       55.70576
O         79.49484       73.07093       56.27456
C         78.87430       71.93194       53.66277
C         78.08101       70.89515       52.86054
C         79.74171       72.77855       52.71261
H         81.40572       70.82042       53.58953
H         79.01070       70.67090       55.43499
H         78.13169       72.61407       54.13384
H         77.46406       71.40359       52.08818
H         78.75969       70.17509       52.35765
H         77.39666       70.33970       53.53597
H         80.45677       72.14976       52.14482
H         79.08912       73.29416       51.98034
H         80.31390       73.55120       53.26816
N         81.63053       72.49327       55.90143
C         82.17371       73.52416       56.77961
C         83.01259       74.54326       56.01311
O         83.43649       75.50038       56.64761
C         82.98170       72.83077       57.90171
C         83.49048       73.77528       58.96561
N         82.63113       74.49597       59.72412
O         84.69325       73.87671       59.15541
H         82.30076       71.86987       55.42983
H         81.34751       74.09576       57.25321
H         83.83695       72.28608       57.44339
H         82.33252       72.08224       58.40613
H         81.61268       74.41536       59.59290
H         82.98549       75.13218       60.45404
N         83.28101       74.44547       54.66956
C         84.11612       75.42772       53.96513
C         84.18433       75.21361       52.45056
O         83.82311       74.15577       51.95172
C         85.55661       75.42099       54.55653
C         86.15071       74.02312       54.57466
C         86.53882       73.38236       53.38766
C         86.30073       73.33512       55.79232
C         87.05721       72.08767       53.40893
C         86.81043       72.03245       55.81383
C         87.19016       71.40446       54.62323
O         87.67884       70.14863       54.65606
H         82.88527       73.66079       54.13396
H         83.64867       76.42752       54.11018
H         85.51198       75.79741       55.59655
H         86.22929       76.12770       54.02517
H         86.44615       73.87765       52.44130
H         86.00465       73.79742       56.72474
H         87.35008       71.61707       52.47880
H         86.90573       71.50955       56.75679
H         87.94964       69.68294       53.85162
N         84.66531       76.22570       51.66339
C         84.91363       76.17185       50.21874
C         83.70100       75.90120       49.33864
O         83.88306       75.89924       48.12792
C         86.06710       75.20805       49.88288
C         87.39319       75.70443       50.48118
C         88.51996       74.79211       50.09703
O         89.45508       75.21636       49.43692
O         88.50534       73.50073       50.47748
H         84.91095       77.11321       52.12968
H         85.25722       77.18310       49.90142
H         86.20805       75.18170       48.77925
H         85.82120       74.17871       50.21714
H         87.33399       75.76826       51.58639
H         87.60343       76.72767       50.09547
N         82.43836       75.75659       49.82666
C         81.27264       75.66467       48.95555
C         80.46204       76.95112       49.04098
O         79.44903       77.04817       48.36120
C         80.39793       74.46992       49.36235
C         81.10963       73.11232       49.38238
C         81.47645       72.59388       48.02639
O         82.35632       73.10523       47.35409
O         80.80769       71.51220       47.59534
H         82.26541       75.80858       50.83931
H         81.56918       75.54343       47.89117
H         79.51297       74.39773       48.68946
H         80.02762       74.66543       50.38913
H         80.37691       72.39202       49.80583
H         81.99492       73.11591       50.05149
N         80.84610       77.99183       49.84000
C         80.09180       79.21890       49.92811
H         79.06889       79.00692       50.30267
H         80.59364       79.91385       50.63589
H         80.04093       79.70233       48.93057
H         81.69996       77.93869       50.41212
Ca        80.83110       70.05214       45.88344
O         82.81164       72.46863       44.17565
H         82.23579       72.92357       44.83760
H         83.40768       73.18278       43.83787
O         82.32042       67.56290       44.05297
H         82.76118       67.04295       43.33511
H         83.05233       68.08437       44.46724
O         83.94461       70.45425       46.75503
H         84.50014       69.64196       46.65271
H         84.55585       71.12377       47.15260
O         84.55873       70.10560       43.52636
H         85.25500       69.49149       43.87013
H         85.01183       70.98341       43.46317

Ca 1.0



