%chk=apoCaM-CA-Ng.loop2.water3.frame571.chk
%nprocshared=20
%mem=10GB
%nosave
#b3lyp/svp scf=(tight,noincore,xqc) Test 
#IOP(5/87=12) Density=Current Pop=(MK,readradii) iop(6/33=2) iop(6/42=6)

apoCaM-CA-Ng.loop2.water3.frame571 

   -2  1 
C         49.55682       17.63496       91.47896
C         48.20837       18.28651       91.35255
O         47.60624       18.59564       92.37051
H         50.26001       18.31772       91.99957
H         49.46011       16.69689       92.06577
H         49.98161       17.38026       90.48484
N         47.66273       18.51622       90.12464
C         46.33628       19.09599       89.93428
C         46.25435       20.49180       90.53502
O         46.96708       21.38110       90.08886
C         45.99467       19.12790       88.42940
C         44.63771       19.71605       88.16142
O         44.52892       20.70731       87.45709
O         43.53666       19.15245       88.69314
H         48.20512       18.23608       89.29221
H         45.59748       18.43207       90.43593
H         46.01340       18.08940       88.03231
H         46.76759       19.71716       87.88663
N         45.39026       20.74261       91.56470
C         45.24029       22.05465       92.19593
C         46.56453       22.52922       92.76505
O         47.39902       21.68513       93.06172
C         44.19747       21.97104       93.31925
H         44.81432       19.96102       91.91410
H         44.89479       22.76726       91.41597
H         44.04742       22.94947       93.81658
H         43.22260       21.63611       92.90625
H         44.52637       21.23884       94.08906
N         46.89654       23.84706       92.90307
C         46.01932       24.99372       92.66832
C         46.18869       25.57940       91.27972
O         47.30509       25.84127       90.85503
C         46.18675       26.05984       93.77704
C         47.56344       26.65324       93.97502
O         48.52148       26.30740       93.30393
O         47.73799       27.58549       94.92998
H         47.85735       24.03802       93.21607
H         44.96152       24.68066       92.75161
H         45.88354       25.60090       94.74127
H         45.48522       26.89497       93.55858
N         45.08163       25.79822       90.51061
C         45.11166       26.29833       89.14794
C         44.63363       25.21278       88.20582
O         44.31367       24.12576       88.67374
H         44.15134       25.57192       90.89683
H         46.14244       26.58748       88.84886
H         44.46383       27.20131       89.07671
N         44.59641       25.36502       86.85522
C         44.92808       26.58932       86.13747
C         46.25758       26.44925       85.41526
O         46.62309       27.36977       84.69167
C         43.78990       26.94218       85.15814
C         42.47422       27.14700       85.87278
N         41.87392       28.35951       85.88544
O         41.94186       26.20665       86.44459
H         44.33757       24.54406       86.28618
H         45.04567       27.44921       86.82972
H         43.66868       26.14190       84.39530
H         44.06609       27.87813       84.62456
H         42.30540       29.17036       85.41871
H         40.97725       28.49205       86.37632
N         47.08445       25.37923       85.61740
C         48.40907       25.27415       85.02729
C         49.38755       26.33962       85.50867
O         50.50827       26.33991       85.02097
H         46.78851       24.60004       86.22443
H         48.31160       25.33403       83.92142
H         48.84252       24.28215       85.27941
N         49.04620       27.29176       86.42832
C         49.93587       28.38245       86.81430
C         51.00824       27.89505       87.76219
O         50.70603       27.36606       88.82265
C         49.14004       29.58994       87.35806
C         48.40486       30.28016       86.20461
O         48.20690       29.19956       88.32997
H         48.10553       27.28356       86.83785
H         50.44029       28.76606       85.90113
H         49.83943       30.35399       87.77218
H         48.69131       29.17659       89.18948
H         47.71801       29.57761       85.68997
H         47.82634       31.14844       86.57804
H         49.14608       30.65311       85.46237
N         52.31013       28.01444       87.38373
C         53.42043       27.40631       88.09442
C         53.82060       28.28800       89.27715
O         54.27345       29.40302       89.06302
C         54.60357       27.15895       87.09062
C         55.79208       26.42553       87.76538
C         54.11256       26.34485       85.86250
C         57.00321       26.23392       86.84046
H         52.50580       28.46775       86.48045
H         53.09478       26.40203       88.43771
H         54.95587       28.14980       86.72704
H         55.46346       25.42880       88.12259
H         56.13297       27.01270       88.64164
H         53.78483       25.32896       86.16824
H         53.26983       26.82898       85.33341
H         54.90151       26.26031       85.09092
H         56.76585       25.58747       85.97091
H         57.36939       27.21625       86.47417
H         57.82193       25.72973       87.39434
N         53.70593       27.82860       90.55466
C         54.20272       28.52325       91.73725
C         55.60288       28.03150       92.07193
O         56.36752       28.80620       92.62950
C         53.26739       28.27616       92.94165
C         51.93187       28.95312       92.80395
O         51.84906       30.16874       92.87322
O         50.81765       28.22204       92.63505
H         53.33568       26.88828       90.69453
H         54.27765       29.61712       91.55162
H         53.72099       28.65318       93.88426
H         53.12756       27.17948       93.06760
N         56.00435       26.75411       91.79639
C         57.33958       26.25536       92.10340
C         57.30422       24.73298       92.21385
O         58.05098       24.05839       91.51714
C         58.33629       26.83364       91.06024
C         59.80519       26.53982       91.28177
C         60.61038       26.12090       90.20359
C         60.40544       26.74620       92.53676
C         61.98472       25.92231       90.38039
C         61.77503       26.52622       92.71244
C         62.56539       26.12154       91.63474
H         55.33310       26.09749       91.38549
H         57.62521       26.61448       93.11333
H         58.24423       27.93838       91.09297
H         58.03313       26.51361       90.03899
H         60.18535       25.97746       89.21744
H         59.82118       27.07766       93.38300
H         62.60303       25.62326       89.54298
H         62.22590       26.68181       93.68378
H         63.62878       25.96964       91.77083
N         56.45771       24.11486       93.10602
C         56.40053       22.67621       93.34849
C         56.11279       21.82414       92.12427
O         56.37071       20.62987       92.16876
C         55.22737       22.52681       94.33023
C         55.29560       23.81850       95.10889
C         55.56344       24.82690       94.00238
H         57.37473       22.38746       93.80257
H         54.26548       22.56526       93.76414
H         55.23935       21.59737       94.93740
H         54.40426       24.05285       95.72966
H         56.19360       23.77009       95.76517
H         54.63271       25.07782       93.44668
H         56.00715       25.73590       94.45900
N         55.50394       22.35460       91.02692
C         55.19019       21.57478       89.83646
C         56.48172       21.14578       89.18702
O         56.68000       19.95845       88.97136
C         54.33374       22.33188       88.78403
C         52.92273       22.72186       89.26451
C         52.82856       23.99549       90.03503
O         51.62869       24.35496       90.51994
O         53.78352       24.73543       90.14884
H         55.26282       23.34215       91.05844
H         54.59125       20.68285       90.13156
H         54.16961       21.59904       87.96292
H         54.85520       23.20242       88.33530
H         52.48999       21.89114       89.85970
H         52.27524       22.89107       88.37831
N         57.42234       22.08217       88.87792
C         58.69964       21.76940       88.27756
H         59.50945       22.04423       88.98570
H         58.79559       20.69215       88.02911
H         58.81844       22.36099       87.34654
H         57.23902       23.07156       89.10619
Ca        51.07309       26.25043       91.59289
O         49.38830       24.66798       88.66084
H         48.41077       24.71631       88.51387
H         49.73580       24.17474       87.87597
O         48.09858       28.42119       91.49906
H         48.64725       29.24401       91.49907
H         47.19003       28.71859       91.24321
O         49.87333       23.11220       91.93893
H         50.48061       22.62967       92.55331
H         49.28925       22.41517       91.55243

Ca 1.0



