%chk=apoCaM-CA-Ng.loop4.water4.frame175.chk
%nprocshared=20
%mem=10GB
%nosave
#b3lyp/svp scf=(tight,noincore,xqc) Test 
#IOP(5/87=12) Density=Current Pop=(MK,readradii) iop(6/33=2) iop(6/42=6)

apoCaM-CA-Ng.loop4.water4.frame175 

   -3  1 
C         55.85686       47.84158       18.10248
C         54.43644       47.96703       17.64601
O         54.12712       47.46664       16.58113
H         56.29898       48.84923       18.23818
H         55.89079       47.28292       19.06043
H         56.45849       47.28592       17.34900
N         53.50947       48.60351       18.41946
C         52.09152       48.74627       18.08300
C         51.44363       47.37805       17.95583
O         50.95363       47.02971       16.89823
C         51.85841       49.75546       16.91861
C         52.41432       49.39321       15.56539
O         51.83422       48.44544       14.80195
O         53.36247       50.01745       15.11606
H         53.82006       48.98382       19.32658
H         51.59024       49.23322       18.95018
H         52.33627       50.70650       17.24477
H         50.77213       49.96244       16.80489
N         51.44780       46.55237       19.04601
C         50.91621       45.19006       19.16105
C         49.38653       45.14446       19.11252
O         48.79633       44.81943       20.13425
C         51.59440       44.18495       18.18760
C         51.20371       42.70958       18.49028
C         53.12678       44.33255       18.18811
C         51.65850       42.16545       19.85385
H         51.90404       46.91848       19.89681
H         51.19852       44.86775       20.18682
H         51.25148       44.41736       17.15997
H         51.66770       42.06532       17.71678
H         50.10186       42.59158       18.41507
H         53.58389       43.60655       17.48228
H         53.41771       45.34326       17.85057
H         53.55281       44.17791       19.20014
H         51.19843       42.72071       20.69509
H         51.34925       41.10323       19.94622
H         52.76302       42.19629       19.95273
N         48.66681       45.46122       17.99457
C         47.20971       45.48306       17.98332
C         46.63324       44.06361       18.07080
O         45.89641       43.82175       19.01604
C         46.64500       46.31489       16.79448
C         47.09269       47.75600       16.79464
O         46.69488       48.50473       15.91622
O         47.93218       48.23310       17.73464
H         49.14626       45.73117       17.13298
H         46.86421       46.05033       18.87889
H         45.53489       46.30364       16.85335
H         46.93528       45.92709       15.81199
N         46.88055       43.05809       17.17064
C         47.75423       43.19839       16.01610
C         47.74848       42.02129       15.05750
O         47.11786       41.01673       15.35422
H         46.40465       42.15710       17.33080
H         48.78645       43.39193       16.36783
H         47.37204       44.01083       15.43171
N         48.42047       42.03720       13.85902
C         49.22422       43.13184       13.29573
C         50.33197       43.51484       14.26179
O         50.36207       44.65043       14.71477
C         48.36657       44.34254       12.82734
C         47.31737       43.99080       11.80414
O         47.16447       42.84379       11.41401
O         46.53612       44.96653       11.30398
H         48.37788       41.17557       13.29200
H         49.70798       42.77313       12.36075
H         49.04266       45.08957       12.36209
H         47.86900       44.86524       13.65477
N         51.26732       42.61628       14.68205
C         51.41761       41.26833       14.15848
C         50.95688       40.22743       15.13824
O         50.41344       40.55890       16.18182
H         51.93513       42.90925       15.41073
H         52.48534       41.11166       13.90331
H         50.84593       41.10549       13.22667
N         51.13717       38.91509       14.83303
C         50.69359       37.82048       15.68516
C         51.86350       37.10987       16.35521
O         51.60562       36.26285       17.19946
C         49.70519       36.90313       14.92207
C         50.13970       36.42211       13.52394
C         51.37624       35.57456       13.52393
N         51.39969       34.39150       14.17534
O         52.35941       35.94580       12.90152
H         51.63781       38.68733       13.96080
H         50.11873       38.22238       16.54916
H         48.77854       37.49557       14.75421
H         49.42558       36.04107       15.56514
H         50.28634       37.30145       12.86097
H         49.31275       35.82677       13.08078
H         50.57330       34.05324       14.68863
H         52.24263       33.80486       14.14973
N         53.16063       37.48278       16.13318
C         54.27363       37.06051       16.98407
C         55.34992       36.28500       16.24042
O         56.33777       35.94238       16.87657
C         54.89847       38.31120       17.68286
C         53.86997       39.02301       18.57503
C         55.51052       39.31925       16.69057
H         53.36884       38.16929       15.39740
H         53.91539       36.38340       17.79082
H         55.71836       37.96018       18.34858
H         54.34909       39.87122       19.10995
H         53.02473       39.42172       17.97420
H         53.47069       38.31865       19.33508
H         54.73951       39.76873       16.03316
H         55.99955       40.14681       17.24678
H         56.28192       38.83412       16.05664
N         55.24380       35.95555       14.92114
C         56.30077       35.24876       14.20222
C         56.81014       36.03068       12.99420
O         57.77765       35.56848       12.40459
C         55.77888       33.87418       13.72248
C         55.37569       32.95492       14.84979
N         56.28236       32.52700       15.75738
O         54.22137       32.56515       14.92745
H         54.38292       36.19112       14.41221
H         57.18034       35.08434       14.86116
H         56.56354       33.35157       13.13310
H         54.90422       34.04240       13.05715
H         57.26704       32.82196       15.70134
H         55.99871       31.88374       16.51179
N         56.19538       37.15739       12.51167
C         56.52032       37.71274       11.19790
C         56.36331       39.22699       11.14589
O         55.31489       39.73024       11.52468
C         55.56187       37.09912       10.14823
C         55.71032       35.59730       10.03289
C         56.92981       35.02998        9.62080
C         54.63261       34.74877       10.33743
C         57.07267       33.64223        9.53450
C         54.77691       33.36039       10.24730
C         55.99616       32.80213        9.85060
O         56.12155       31.46161        9.77714
H         55.33657       37.49847       12.96355
H         57.55659       37.44868       10.89553
H         55.76988       37.53923        9.14873
H         54.51580       37.36159       10.42362
H         57.77444       35.66044        9.37417
H         53.68232       35.15826       10.65319
H         58.02123       33.22186        9.22457
H         53.94075       32.71759       10.49216
H         56.94943       31.03587        9.51183
N         57.33154       39.99510       10.55514
C         57.18596       41.41235       10.20542
C         57.13597       42.37492       11.37846
O         57.00572       43.56330       11.11391
C         55.98307       41.63515        9.24735
C         56.16198       40.93666        7.88983
C         57.30609       41.53178        7.11287
O         57.29139       42.83947        6.78651
O         58.24928       40.83661        6.77224
H         58.19098       39.52843       10.22737
H         58.09951       41.72419        9.65227
H         55.85090       42.72011        9.04213
H         55.04209       41.29004        9.71912
H         55.23843       41.07876        7.28945
H         56.31314       39.84588        8.03901
N         57.33014       41.99029       12.67164
C         57.41591       42.96335       13.75902
C         58.84061       43.06940       14.28782
O         59.06990       43.88739       15.16906
C         56.45279       42.58748       14.89669
C         54.99259       42.42992       14.45479
C         54.37700       43.69693       13.93789
O         54.33114       44.78096       14.73071
O         53.86211       43.72787       12.83228
H         57.49533       40.99770       12.89337
H         57.14487       43.98150       13.40235
H         56.50667       43.35634       15.70027
H         56.78206       41.61909       15.32917
H         54.40390       42.11969       15.34394
H         54.91220       41.62509       13.69352
N         59.85839       42.30227       13.79700
C         61.21461       42.42469       14.28332
H         61.59315       43.45120       14.09210
H         61.24996       42.20888       15.37187
H         61.87154       41.70082       13.75498
H         59.68953       41.60900       13.05522
Ca        52.84645       46.45751       14.46348
O         49.22710       47.71071       13.52506
H         49.02150       47.29317       14.39896
H         49.27735       48.68054       13.71880
O         54.94863       47.79941       12.44875
H         54.82126       46.88214       12.09785
H         55.40571       47.67153       13.31784
O         51.53128       45.55373       11.46553
H         51.30404       45.25709       10.54909
H         51.56980       44.71739       11.99189
O         51.85026       48.47328       11.71202
H         51.79605       48.61010       10.73298
H         52.07590       49.36529       12.07710

Ca 1.0



