%chk=apoCaM-CA-Ng.loop3.water3.frame890.chk
%nprocshared=20
%mem=10GB
%nosave
#b3lyp/svp scf=(tight,noincore,xqc) Test 
#IOP(5/87=12) Density=Current Pop=(MK,readradii) iop(6/33=2) iop(6/42=6)

apoCaM-CA-Ng.loop3.water3.frame890 

   0  1 
C         26.27778      -22.95164       -0.96869
C         27.14806      -24.00946       -1.58457
O         26.83868      -24.47699       -2.67034
H         25.25470      -23.34752       -0.80823
H         26.68310      -22.61033        0.00826
H         26.23210      -22.07321       -1.64670
N         28.28068      -24.41452       -0.95065
C         29.22811      -25.36399       -1.52192
C         28.60261      -26.74542       -1.67134
O         27.99832      -27.21026       -0.71450
C         30.48668      -25.42134       -0.63197
C         31.67622      -25.96211       -1.36234
O         32.73414      -26.09565       -0.77209
O         31.61134      -26.25530       -2.67299
H         28.50702      -23.97964       -0.04217
H         29.54152      -24.97250       -2.50672
H         30.27263      -26.01206        0.28574
H         30.78307      -24.40017       -0.31931
N         28.72987      -27.47135       -2.82624
C         28.06617      -28.76218       -3.03086
C         29.02360      -29.95012       -2.90491
O         28.53601      -31.06284       -2.75697
C         27.28529      -28.70170       -4.35973
C         26.32387      -29.87742       -4.60500
C         25.41072      -29.63124       -5.82301
C         26.15982      -29.58438       -7.16577
N         25.23508      -29.30358       -8.26506
H         29.30739      -27.09224       -3.59065
H         27.32790      -28.90651       -2.21187
H         28.00719      -28.60984       -5.19641
H         26.66897      -27.77592       -4.32635
H         25.66116      -29.96979       -3.71713
H         26.87906      -30.83103       -4.73000
H         24.86047      -28.67641       -5.67098
H         24.66158      -30.45127       -5.87172
H         26.65818      -30.56355       -7.34089
H         26.93664      -28.79169       -7.15438
H         24.48574      -30.03171       -8.30835
H         24.80129      -28.36048       -8.13274
H         25.76266      -29.30477       -9.16785
N         30.38034      -29.79432       -2.86188
C         31.31062      -30.84955       -2.44991
C         32.07933      -30.42041       -1.19264
O         32.91011      -31.18463       -0.72411
C         32.20216      -31.31446       -3.63008
C         32.94590      -30.21926       -4.32873
O         32.64272      -29.91714       -5.47132
O         33.91454      -29.53064       -3.71407
H         30.78416      -28.86807       -3.06078
H         30.75554      -31.76523       -2.14678
H         31.51992      -31.78087       -4.37475
H         32.91564      -32.09962       -3.29777
N         31.77808      -29.25594       -0.53395
C         32.33318      -28.87052        0.75341
C         33.78786      -28.45053        0.75842
O         34.24680      -28.09756        1.83604
H         31.03009      -28.64488       -0.88363
H         32.17778      -29.69885        1.47837
H         31.75800      -27.99499        1.12878
N         34.58379      -28.45753       -0.35366
C         36.00181      -28.09609       -0.29880
C         36.40491      -27.05584       -1.34036
O         35.65143      -26.77091       -2.25606
C         36.83974      -29.38214       -0.45339
C         36.58764      -30.08551       -1.76994
N         36.01872      -31.31372       -1.80023
O         36.89484      -29.53874       -2.81869
H         34.19950      -28.78908       -1.24693
H         36.24376      -27.66255        0.69597
H         36.56673      -30.05893        0.38619
H         37.92365      -29.15925       -0.35866
H         35.74223      -31.79258       -0.93093
H         35.84045      -31.78448       -2.69985
N         37.62918      -26.46383       -1.25056
C         38.21646      -25.58756       -2.25600
C         37.36740      -24.39054       -2.63283
O         36.94402      -23.64891       -1.75732
H         38.21271      -26.68019       -0.42755
H         38.44017      -26.18658       -3.16410
H         39.18621      -25.21448       -1.86114
N         37.13841      -24.11559       -3.95342
C         36.36243      -22.96774       -4.42952
C         34.89588      -23.09414       -4.05376
O         34.50833      -24.09166       -3.46754
C         36.48743      -22.83519       -5.97082
C         37.86028      -22.38970       -6.41896
C         38.35025      -21.13096       -6.02484
C         38.64282      -23.19177       -7.26610
C         39.59629      -20.68277       -6.46915
C         39.89183      -22.74016       -7.71029
C         40.37110      -21.48530       -7.31681
O         41.56994      -21.05867       -7.76343
H         37.57054      -24.73390       -4.65764
H         36.75065      -22.04209       -3.95334
H         35.79103      -22.06379       -6.35830
H         36.19548      -23.80034       -6.44188
H         37.76151      -20.48673       -5.38410
H         38.28482      -24.16003       -7.59203
H         39.95332      -19.70787       -6.16068
H         40.48475      -23.36229       -8.36881
H         41.92901      -20.19173       -7.52460
N         34.02825      -22.07520       -4.36128
C         32.60623      -22.04581       -4.02366
C         31.84284      -23.13966       -4.76513
O         32.17899      -24.30782       -4.62807
C         32.40195      -22.08229       -2.47807
C         30.90999      -22.04620       -2.05786
C         33.18328      -20.93890       -1.80029
C         30.12526      -20.79607       -2.45914
H         34.40169      -21.24030       -4.83461
H         32.20618      -21.06687       -4.36892
H         32.80571      -23.03722       -2.08134
H         30.85220      -22.14027       -0.95209
H         30.39788      -22.92002       -2.49816
H         32.84448      -19.94781       -2.16834
H         33.05086      -20.97919       -0.69868
H         34.27030      -21.02394       -2.00968
H         30.55478      -19.88641       -1.99438
H         30.09621      -20.67207       -3.55820
H         29.07867      -20.90210       -2.10229
N         30.75903      -22.83003       -5.53661
C         29.95504      -23.83109       -6.23564
C         29.70107      -23.50624       -7.70882
O         29.08086      -24.32025       -8.37553
C         28.60461      -23.96105       -5.51631
O         27.91336      -22.74114       -5.55821
H         30.44251      -21.84856       -5.55635
H         30.45682      -24.82006       -6.19117
H         28.80318      -24.24119       -4.46368
H         27.99079      -24.75846       -5.99019
H         27.12991      -22.84416       -4.95832
N         30.06879      -22.31445       -8.26696
C         29.62185      -21.90208       -9.59802
C         30.52581      -22.44377      -10.69731
O         31.60457      -22.91914      -10.37051
C         29.63360      -20.36941       -9.63367
H         30.54585      -21.61661       -7.68410
H         28.57399      -22.23680       -9.73896
H         29.29322      -19.97430      -10.59429
H         28.96232      -19.97340       -8.84157
H         30.66069      -19.98442       -9.45732
N         30.22454      -22.37665      -12.03478
C         28.92242      -22.03699      -12.62142
C         29.07847      -21.71534      -14.10944
O         29.68367      -22.52117      -14.80400
C         27.97302      -23.23442      -12.48472
H         30.96171      -22.69772      -12.68281
H         28.45245      -21.19584      -12.10169
H         26.98522      -22.98522      -12.93007
H         28.38477      -24.12388      -13.00840
H         27.81020      -23.50422      -11.42342
N         28.54224      -20.61417      -14.72465
C         27.67416      -19.61761      -14.10173
C         28.37337      -18.80390      -13.03312
O         27.81083      -18.64171      -11.95916
C         26.98376      -18.68925      -15.14390
C         27.82281      -17.60387      -15.85267
C         28.88446      -18.13194      -16.77197
O         30.17167      -17.77965      -16.59175
O         28.58139      -18.84271      -17.71673
H         28.69434      -20.54309      -15.74079
H         26.82255      -20.16554      -13.63703
H         26.18747      -18.13740      -14.59581
H         26.47040      -19.31752      -15.90511
H         28.27010      -16.92271      -15.09900
H         27.12960      -16.99189      -16.47014
N         29.59670      -18.25246      -13.25653
C         30.27760      -17.45222      -12.26297
H         31.25828      -17.11353      -12.65866
H         29.66594      -16.56025      -12.01134
H         30.45721      -18.04926      -11.34598
H         30.06824      -18.41168      -14.15663
Ca        33.31699      -27.41545       -3.46759
O         35.60795      -27.60308       -5.71683
H         36.56903      -27.83986       -5.71033
H         35.16563      -28.37093       -6.15909
O         33.30087      -25.90198       -6.86844
H         32.67076      -25.38253       -7.42826
H         33.14485      -26.84457       -7.12818
O         30.67227      -27.41664       -5.96162
H         30.61940      -28.24907       -5.43082
H         29.76036      -27.29884       -6.32805

Ca 1.0



