%chk=apoCaM-CA-Ng.loop2.water4.frame283.chk
%nprocshared=20
%mem=10GB
%nosave
#b3lyp/svp scf=(tight,noincore,xqc) Test 
#IOP(5/87=12) Density=Current Pop=(MK,readradii) iop(6/33=2) iop(6/42=6)

apoCaM-CA-Ng.loop2.water4.frame283 

   -2  1 
C         48.98623       58.02962       38.54041
C         49.85302       59.02077       39.26028
O         50.87147       58.62301       39.80583
H         48.09836       58.51925       38.08773
H         49.57047       57.53904       37.73429
H         48.63481       57.25783       39.25728
N         49.51848       60.34100       39.29247
C         50.31129       61.34179       39.99668
C         50.25318       61.08508       41.49526
O         49.16521       61.07597       42.05587
C         49.78120       62.75762       39.67073
C         50.61540       63.87739       40.24458
O         50.28857       65.03405       40.03379
O         51.72489       63.63028       40.96862
H         48.67431       60.64517       38.78238
H         51.35797       61.29213       39.62009
H         48.73614       62.85889       40.03671
H         49.77611       62.88566       38.56594
N         51.39715       60.90052       42.21343
C         51.40140       60.72567       43.66421
C         50.84093       59.38410       44.12333
O         50.76527       59.18452       45.32795
C         52.83608       60.85574       44.19461
H         52.29937       60.95927       41.71585
H         50.80362       61.54850       44.11637
H         53.25969       61.84096       43.90584
H         52.85234       60.78722       45.30375
H         53.47899       60.05085       43.77648
N         50.48389       58.39815       43.24603
C         50.06287       57.06033       43.64773
C         51.19769       56.39862       44.41901
O         51.02748       56.00199       45.56428
C         48.70933       57.11266       44.40158
C         48.14672       55.75699       44.74081
O         46.96256       55.67364       45.37611
O         48.74499       54.73271       44.45142
H         50.56681       58.56460       42.23792
H         49.89520       56.46168       42.72324
H         47.96840       57.62989       43.75344
H         48.80647       57.68864       45.34377
N         52.42249       56.29651       43.83160
C         53.59690       55.77668       44.50896
C         53.60243       54.27668       44.73235
O         54.58076       53.80439       45.29454
H         52.54961       56.68231       42.88314
H         53.72421       56.31145       45.47560
H         54.48788       56.00095       43.88314
N         52.59702       53.44991       44.31529
C         52.66747       52.00065       44.49336
C         53.82400       51.43559       43.68295
O         53.87351       51.66106       42.48160
C         51.35851       51.31952       44.05221
C         51.41320       49.83392       44.33179
N         51.36879       48.93167       43.32458
O         51.51648       49.44365       45.48544
H         51.76717       53.84888       43.85361
H         52.79970       51.78467       45.57774
H         51.18858       51.51329       42.97447
H         50.50035       51.74991       44.60958
H         51.30336       49.23430       42.34420
H         51.41941       47.92194       43.52523
N         54.79053       50.68680       44.28191
C         55.94071       50.16175       43.56645
C         55.56357       49.15591       42.50070
O         55.01685       48.11581       42.83933
H         54.72796       50.50537       45.29532
H         56.61125       49.64315       44.28620
H         56.50886       51.00946       43.12945
N         55.84960       49.39792       41.18646
C         55.64514       48.41092       40.12387
C         54.38904       48.66767       39.29902
O         54.06604       47.81694       38.47947
C         56.90651       48.30542       39.21278
C         57.24745       49.60113       38.44641
O         58.02110       47.86806       39.94909
H         56.24560       50.31522       40.93839
H         55.48292       47.41160       40.58459
H         56.70239       47.53006       38.44200
H         58.30719       48.61200       40.54064
H         58.10352       49.42305       37.76183
H         56.38941       49.93217       37.83525
H         57.53078       50.42800       39.12903
N         53.62970       49.79005       39.44595
C         52.40515       50.04651       38.68647
C         51.24218       50.32202       39.62861
O         51.37040       51.16154       40.50740
C         52.59620       51.19904       37.65806
C         53.16620       52.49543       38.29192
C         53.46984       50.70070       36.49038
C         53.20943       53.67515       37.32134
H         53.93591       50.51326       40.11150
H         52.12113       49.15675       38.08186
H         51.59327       51.41840       37.22716
H         54.19351       52.31616       38.67677
H         52.52547       52.80921       39.13895
H         53.52791       51.44728       35.67514
H         54.49183       50.46240       36.83303
H         53.02748       49.78396       36.04320
H         52.18991       53.88952       36.93675
H         53.58575       54.57334       37.85395
H         53.89348       53.48052       36.47159
N         50.06264       49.64679       39.48137
C         48.87971       49.85573       40.32515
C         47.76191       48.81032       40.08346
O         46.65777       49.02391       40.56061
C         48.36018       51.31614       40.16098
C         47.15103       51.62116       41.05141
O         47.42033       51.38980       42.40569
O         46.73814       52.95163       40.91885
H         50.01765       48.98097       38.70186
H         49.17251       49.72564       41.38885
H         48.07243       51.48861       39.10164
H         49.15276       52.04551       40.42341
N         47.98564       47.59827       39.48583
C         46.94922       46.57299       39.40106
C         45.82092       46.98916       38.45698
O         46.10312       47.21292       37.28803
C         47.55186       45.24233       38.89558
C         46.53177       44.13174       38.95677
C         46.05409       43.68307       40.20084
C         46.04021       43.54461       37.77963
C         45.09547       42.66960       40.26496
C         45.07669       42.53347       37.84831
C         44.60460       42.09685       39.08950
H         48.92512       47.33700       39.16833
H         46.58153       46.39277       40.43124
H         48.42500       44.94776       39.51775
H         47.91967       45.38956       37.85549
H         46.42310       44.11897       41.12111
H         46.39068       43.87771       36.81076
H         44.73187       42.33137       41.22663
H         44.69338       42.09034       36.93873
H         43.85847       41.31502       39.14107
N         44.51154       47.06295       38.85820
C         43.39662       47.30924       37.95156
C         43.22946       48.77573       37.57625
O         42.24710       49.08449       36.91591
C         42.19653       46.77639       38.74347
C         42.56330       47.15483       40.15928
C         44.04161       46.77952       40.20110
H         43.47189       46.70698       37.01850
H         41.19980       47.11618       38.38874
H         42.21556       45.66229       38.69430
H         42.47100       48.26121       40.23845
H         41.94869       46.68721       40.95711
H         44.54752       47.38452       40.98256
H         44.17565       45.69521       40.39791
N         44.14848       49.72537       37.91438
C         44.02356       51.12848       37.54089
C         45.04479       51.50297       36.47341
O         45.06460       52.66046       36.07724
C         44.21215       52.01003       38.78931
C         43.19811       51.69892       39.89965
C         43.43693       52.56935       41.10043
O         43.35260       53.78356       41.00761
O         43.74020       52.01262       42.28874
H         44.99830       49.45754       38.42787
H         43.02077       51.34005       37.10862
H         44.11474       53.08029       38.50160
H         45.23600       51.84383       39.17696
H         43.29481       50.63587       40.20740
H         42.16525       51.86878       39.52755
N         45.90216       50.58315       35.93680
C         46.86856       50.89514       34.90421
H         47.88722       50.65109       35.27124
H         46.65397       50.27781       34.00634
H         46.84641       51.96422       34.60791
H         45.87906       49.60381       36.24826
Ca        46.66846       53.39300       43.14016
O         45.41958       50.60462       44.92839
H         44.88714       50.48989       45.75540
H         44.90583       50.12251       44.23281
O         43.97238       53.46656       45.40383
H         43.36094       52.72219       45.63294
H         43.40233       54.27515       45.44244
O         44.83457       55.79651       43.05287
H         43.89719       55.50542       43.18174
H         44.76967       56.60060       42.47940
O         48.06135       52.07565       45.85800
H         47.91418       51.35241       46.51760
H         48.73062       52.66733       46.28507

Ca 1.0



