%chk=apoCaM-CA-Ng.loop3.water5.frame268.chk
%nprocshared=20
%mem=10GB
%nosave
#b3lyp/svp scf=(tight,noincore,xqc) Test 
#IOP(5/87=12) Density=Current Pop=(MK,readradii) iop(6/33=2) iop(6/42=6)

apoCaM-CA-Ng.loop3.water5.frame268 

   0  1 
C         45.62392       11.35400       15.34248
C         46.43777       10.13571       15.66733
O         47.45928        9.92440       15.03358
H         44.71327       11.41448       15.97622
H         46.22934       12.27003       15.49457
H         45.29917       11.29945       14.28121
N         46.01824        9.26836       16.63085
C         46.65356        7.99338       16.94679
C         46.59890        7.07637       15.73050
O         47.58829        6.45200       15.37189
C         48.06756        8.20180       17.53269
C         48.67121        6.93497       18.07123
O         49.72535        6.51557       17.62026
O         48.06612        6.27223       19.07534
H         45.15234        9.49170       17.14596
H         46.02827        7.51758       17.73603
H         47.99961        8.91953       18.37690
H         48.73544        8.62820       16.75768
N         45.42822        6.97127       15.03806
C         45.22328        6.08159       13.89556
C         46.09430        6.41483       12.68752
O         46.03895        5.66861       11.71861
C         43.75428        6.14729       13.40887
C         42.71424        5.82369       14.49562
C         41.28191        5.75216       13.94408
C         40.79207        7.06664       13.30988
N         39.40203        6.94082       12.87383
H         44.64035        7.54607       15.36536
H         45.44969        5.04483       14.22812
H         43.62519        5.41644       12.57994
H         43.56498        7.16865       13.01184
H         42.73239        6.58198       15.30443
H         42.95958        4.83659       14.94155
H         40.61111        5.49570       14.79246
H         41.22078        4.93684       13.19157
H         41.41531        7.32345       12.42642
H         40.87122        7.89450       14.04911
H         38.78601        6.74008       13.69476
H         39.09686        7.83811       12.43229
H         39.31493        6.17113       12.17071
N         46.86624        7.53650       12.63018
C         47.58979        7.93413       11.42830
C         48.64969        6.89954       11.03556
O         48.91953        5.98764       11.80604
C         48.19525        9.33942       11.66575
C         48.76507        9.94433       10.43465
O         50.07563       10.22667       10.34712
O         48.03479       10.18000        9.48467
H         46.87795        8.17421       13.43213
H         46.83982        8.00372       10.60897
H         48.97067        9.28494       12.44743
H         47.40449       10.03365       12.02666
N         49.27161        6.96743        9.82235
C         50.27891        6.01641        9.37564
C         51.50871        6.06872       10.24777
O         51.90077        5.04371       10.78645
H         49.00572        7.71034        9.16132
H         50.58046        6.26995        8.33861
H         49.84935        4.99074        9.35812
N         52.14116        7.25624       10.46283
C         53.28157        7.41540       11.36268
C         52.86156        8.07344       12.67598
O         53.72352        8.41022       13.47551
C         54.44595        8.15381       10.65597
C         54.19204        9.58234       10.22837
N         55.19189       10.28973        9.65214
O         53.10575       10.11104       10.40291
H         51.73617        8.09914       10.03039
H         53.69010        6.42259       11.65134
H         54.74250        7.57006        9.75742
H         55.31361        8.16695       11.35064
H         56.12036        9.86601        9.50805
H         55.04554       11.26555        9.35735
N         51.54336        8.19511       13.00659
C         51.05141        8.74428       14.25838
C         51.21519       10.24000       14.32746
O         51.91290       10.81794       13.50757
H         50.82851        7.83322       12.36556
H         51.50392        8.23473       15.13507
H         49.95932        8.54593       14.30154
N         50.53365       10.94569       15.27248
C         50.55823       12.40333       15.34381
C         49.98875       13.02942       14.07770
O         49.46926       12.33070       13.21837
C         49.78094       12.92352       16.57807
C         50.48332       12.57314       17.86635
C         51.38755       13.48682       18.43422
C         50.25673       11.34713       18.51027
C         52.06073       13.17342       19.61708
C         50.93017       11.03392       19.69377
C         51.83594       11.94286       20.24995
O         52.48242       11.62484       21.38907
H         49.95683       10.41995       15.93952
H         51.61811       12.73171       15.43119
H         48.72455       12.57418       16.58442
H         49.72285       14.03159       16.53341
H         51.57799       14.43996       17.95573
H         49.55860       10.63473       18.10348
H         52.75806       13.88673       20.03753
H         50.74752       10.08265       20.17747
H         53.11979       12.22477       21.80201
N         50.10362       14.37487       13.89954
C         49.67946       15.08348       12.69941
C         50.91601       15.68252       12.04435
O         51.11868       15.45003       10.86087
C         48.61503       16.17110       13.02969
C         47.41778       15.54631       13.79604
C         48.12035       16.83574       11.72281
C         46.35776       16.56554       14.22378
H         50.54999       14.92406       14.64686
H         49.20256       14.38145       11.97829
H         49.08709       16.94261       13.67770
H         47.79029       15.06437       14.72472
H         46.93348       14.76355       13.17133
H         48.95158       17.25209       11.12919
H         47.59656       16.09476       11.08167
H         47.43629       17.68177       11.93136
H         45.86583       17.03761       13.34958
H         45.56612       16.05042       14.80735
H         46.81455       17.35232       14.86057
N         51.81484       16.43354       12.75470
C         53.00823       17.00444       12.13539
C         52.66010       18.15543       11.20665
O         53.52592       18.58169       10.45719
C         54.01141       17.48524       13.19435
O         54.41058       16.41748       14.01164
H         51.66750       16.57786       13.76417
H         53.50671       16.20187       11.54467
H         53.54852       18.26918       13.83080
H         54.90605       17.94325       12.71206
H         55.09451       15.90908       13.50052
N         51.40383       18.69193       11.18829
C         50.94678       19.70523       10.25085
C         51.14779       19.21868        8.82676
O         51.64558       19.97102        7.99723
C         51.63011       21.05363       10.52557
H         50.69946       18.34674       11.84982
H         49.85430       19.84136       10.41796
H         51.45594       21.35970       11.57878
H         52.72520       20.98950       10.35430
H         51.21497       21.83851        9.85863
N         50.85716       17.92617        8.49642
C         51.13306       17.36373        7.18262
C         49.92163       16.66768        6.60692
O         48.94828       16.44278        7.31669
C         52.29403       16.37238        7.29545
H         50.49769       17.29374        9.22718
H         51.43207       18.16969        6.47813
H         53.19225       16.89012        7.69509
H         52.02955       15.54461        7.98730
H         52.54959       15.94500        6.30328
N         49.91366       16.32317        5.28607
C         48.82831       15.61737        4.61098
C         47.48761       16.34897        4.67360
O         46.50391       15.77733        4.22326
C         48.70824       14.17022        5.13518
C         50.04026       13.41181        4.99643
C         49.87020       11.96957        5.35092
O         50.17219       11.09303        4.55700
O         49.32763       11.63756        6.52880
H         50.73587       16.56989        4.71321
H         49.08886       15.52263        3.53340
H         47.93755       13.64099        4.53149
H         48.37746       14.15901        6.19587
H         50.79304       13.85972        5.67944
H         50.41945       13.48129        3.95355
N         47.36327       17.61137        5.18266
C         46.09808       18.30771        5.29210
H         45.24067       17.69146        4.95071
H         45.92653       18.58055        6.35499
H         46.13527       19.23536        4.68477
H         48.18938       18.13171        5.50372
Ca        50.50522       11.08452        8.34288
O         52.98638       11.04773        6.56389
H         52.90594       10.93288        5.58398
H         53.84620       10.61592        6.79676
O         49.23892       13.80871        8.77406
H         49.65075       13.58010        9.64335
H         50.00730       14.02371        8.18806
O         51.84318       12.80534       11.02245
H         51.47515       11.98223       11.41981
H         52.52527       13.11296       11.67003
O         53.36760       13.28058        8.71797
H         53.95792       13.53207        9.47241
H         53.91021       13.45531        7.90951
O         51.08429        8.51778        7.23602
H         51.78816        8.12534        6.66222
H         50.31426        8.66136        6.63042

Ca 1.0



