%chk=apoCaM-CA-Ng.loop2.water4.frame681.chk
%nprocshared=20
%mem=10GB
%nosave
#b3lyp/svp scf=(tight,noincore,xqc) Test 
#IOP(5/87=12) Density=Current Pop=(MK,readradii) iop(6/33=2) iop(6/42=6)

apoCaM-CA-Ng.loop2.water4.frame681 

   -2  1 
C        -10.87885       61.86848       68.51613
C        -11.81630       62.23658       67.40018
O        -11.35123       62.52067       66.30614
H        -10.16191       62.69660       68.69370
H        -11.42944       61.67352       69.46129
H        -10.31667       60.95005       68.24489
N        -13.16268       62.21318       67.60169
C        -14.15014       62.52356       66.57637
C        -14.80768       61.22782       66.13697
O        -15.31853       60.49272       66.97120
C        -15.16036       63.54540       67.13338
C        -16.28950       63.81647       66.17734
O        -17.55814       63.56128       66.55199
O        -16.06717       64.26288       65.06336
H        -13.51466       61.90884       68.52301
H        -13.66613       62.98466       65.68644
H        -14.63094       64.50015       67.34920
H        -15.58872       63.16592       68.08596
N        -14.80622       60.88340       64.81480
C        -15.29424       59.59846       64.31019
C        -14.33605       58.49043       64.74439
O        -13.27722       58.82938       65.25857
C        -15.38133       59.68576       62.77720
H        -14.42042       61.56172       64.13927
H        -16.31103       59.41768       64.72383
H        -14.38122       59.90609       62.34779
H        -15.75927       58.77049       62.29417
H        -16.07354       60.51123       62.50353
N        -14.58195       57.14903       64.64088
C        -15.78508       56.49092       64.13333
C        -16.71086       56.09037       65.27091
O        -16.30693       55.37975       66.17768
C        -15.43594       55.25875       63.23907
C        -14.64263       54.14860       63.91224
O        -14.38821       53.11999       63.30684
O        -14.21014       54.30978       65.17610
H        -13.84922       56.54996       65.03640
H        -16.36252       57.17945       63.49981
H        -14.86936       55.60305       62.34754
H        -16.39624       54.82341       62.88204
N        -18.00756       56.50219       65.26169
C        -18.97340       56.10788       66.26984
C        -18.61749       56.67054       67.62759
O        -18.15954       57.80422       67.66462
H        -18.34502       57.09406       64.48742
H        -19.08215       55.00921       66.25386
H        -19.95501       56.54604       65.98855
N        -18.89420       56.04737       68.81231
C        -19.55076       54.75109       69.00418
C        -18.81334       53.94201       70.07224
O        -17.83684       54.42592       70.62713
C        -21.00336       55.03264       69.45152
C        -21.80072       55.69796       68.35413
N        -22.16582       55.00408       67.24954
O        -22.13585       56.86708       68.47180
H        -18.70860       56.59602       69.66827
H        -19.57362       54.13949       68.08505
H        -20.96669       55.69627       70.34385
H        -21.54508       54.10831       69.73997
H        -21.92312       54.00764       67.14877
H        -22.71878       55.45516       66.50504
N        -19.26315       52.71255       70.45851
C        -18.67523       51.98821       71.57817
C        -17.34192       51.31610       71.29576
O        -16.72539       50.85946       72.24780
H        -20.11377       52.32643       70.02186
H        -19.36544       51.17427       71.89058
H        -18.58867       52.68077       72.44336
N        -16.89075       51.09560       70.02821
C        -15.73549       50.23778       69.74982
C        -14.42847       50.99512       69.91904
O        -14.21672       51.97558       69.22150
C        -15.84522       49.64122       68.31943
C        -14.63553       48.77603       67.94436
O        -16.98910       48.82909       68.22136
H        -17.47527       51.41278       69.24080
H        -15.75730       49.35994       70.43443
H        -15.89682       50.46166       67.57651
H        -17.78153       49.42232       68.17861
H        -13.69440       49.35210       68.00172
H        -14.54679       47.90484       68.62476
H        -14.74666       48.41298       66.89985
N        -13.46908       50.53311       70.77533
C        -12.11553       51.08034       70.82546
C        -11.25039       50.34702       69.79465
O        -11.10105       49.13984       69.91186
C        -11.51416       50.94460       72.26562
C        -10.06094       51.49555       72.29993
C        -12.40803       51.66359       73.29828
C         -9.36479       51.38882       73.65957
H        -13.66293       49.67499       71.31322
H        -12.14772       52.16247       70.58729
H        -11.48323       49.86639       72.53983
H        -10.06114       52.55290       71.98521
H         -9.43678       50.92982       71.57695
H        -12.45123       52.75461       73.09476
H        -13.43924       51.25395       73.28308
H        -12.03237       51.50489       74.33034
H         -9.33674       50.33232       73.99928
H         -8.32176       51.76061       73.56627
H         -9.86639       52.01384       74.42606
N        -10.62676       51.02631       68.77954
C         -9.74511       50.41393       67.78774
C         -8.29635       50.88599       67.91476
O         -7.46482       50.31715       67.21592
C        -10.18879       50.78895       66.35484
C        -11.61926       50.47966       66.03884
O        -12.60520       51.08784       66.71848
O        -11.89760       49.73227       65.11610
H        -10.78059       52.02593       68.68814
H         -9.75577       49.30971       67.91687
H         -9.53112       50.26773       65.62404
H        -10.04600       51.88056       66.21014
N         -7.89980       51.90984       68.73225
C         -6.50355       52.34347       68.81365
C         -6.41648       53.86442       68.98059
O         -5.84846       54.32154       69.96500
C         -5.83917       51.48684       69.91830
C         -4.33907       51.58451       70.09092
C         -3.79970       51.73621       71.38167
C         -3.46148       51.43341       69.00014
C         -2.41521       51.72558       71.57844
C         -2.07586       51.44053       69.20102
C         -1.55382       51.57895       70.48941
H         -8.58474       52.37902       69.34207
H         -5.98624       52.10955       67.85872
H         -6.02511       50.42602       69.64349
H         -6.35927       51.66807       70.88487
H         -4.44925       51.82711       72.24324
H         -3.84032       51.29926       67.99619
H         -2.01022       51.81692       72.57832
H         -1.40498       51.32243       68.35952
H         -0.48235       51.56369       70.64547
N         -6.95838       54.72460       68.05300
C         -6.96878       56.18550       68.13841
C         -7.44406       56.72279       69.47363
O         -6.85862       57.66313       69.98587
C         -7.97573       56.59785       67.05351
C         -7.72955       55.55126       65.99825
C         -7.63012       54.28288       66.84281
H         -5.95534       56.57672       67.89342
H         -9.01827       56.43984       67.41697
H         -7.88319       57.65234       66.71422
H         -8.47538       55.51051       65.17694
H         -6.73112       55.76160       65.55257
H         -8.62580       53.88817       67.12584
H         -7.05918       53.52364       66.26984
N         -8.51087       56.14251       70.09050
C         -9.03856       56.57542       71.37650
C         -7.93641       56.48011       72.40980
O         -7.60452       57.48257       73.02902
C        -10.25340       55.74175       71.88123
C        -11.52859       55.72181       71.01055
C        -11.56931       54.75078       69.86798
O        -12.70127       54.67962       69.14530
O        -10.63943       54.01563       69.62086
H         -8.91406       55.34255       69.61965
H         -9.38388       57.62869       71.27901
H        -10.55808       56.23669       72.83036
H         -9.96934       54.70868       72.14563
H        -11.74020       56.74441       70.63424
H        -12.37136       55.40447       71.65998
N         -7.29495       55.29652       72.61472
C         -6.19719       55.15917       73.54351
H         -5.37751       55.85482       73.26254
H         -6.54069       55.38128       74.57512
H         -5.80357       54.12069       73.50879
H         -7.57552       54.46632       72.06930
Ca       -13.21231       53.76198       67.12972
O        -16.10619       52.51523       66.14803
H        -15.71410       51.77971       65.61280
H        -17.06818       52.29546       66.21750
O        -10.90855       54.52869       65.70621
H        -10.77378       55.47520       65.95710
H        -10.80609       54.04175       66.56099
O        -15.38457       55.10614       68.90575
H        -15.52662       54.73679       69.81191
H        -15.52065       56.08113       69.00715
O        -13.13789       56.66199       67.44569
H        -13.61856       57.50547       67.62993
H        -12.22609       56.93555       67.17703

Ca 1.0



