%chk=apoCaM-CA-Ng.loop1.water5.frame663.chk
%nprocshared=20
%mem=10GB
%nosave
#b3lyp/svp scf=(tight,noincore,xqc) Test 
#IOP(5/87=12) Density=Current Pop=(MK,readradii) iop(6/33=2) iop(6/42=6)

apoCaM-CA-Ng.loop1.water5.frame663 

   0  1 
C          1.94872       37.14091       19.34428
C          1.20327       35.85159       19.15505
O          0.77182       35.57689       18.04440
H          2.84088       37.15650       18.68500
H          1.28620       37.99319       19.08416
H          2.28318       37.26723       20.39591
N          1.00976       35.00520       20.20570
C          0.27696       33.74231       20.09784
C         -1.17063       33.96248       19.67304
O         -1.58760       35.10570       19.53916
C          0.37859       32.96151       21.43339
C         -0.18070       33.66991       22.64420
O         -0.03053       33.10516       23.85621
O         -0.73996       34.75188       22.55389
H          1.41636       35.26881       21.11668
H          0.76757       33.12277       19.31527
H          1.45686       32.77497       21.62828
H         -0.11824       31.97280       21.34259
N         -1.99950       32.90110       19.43938
C         -3.38368       33.06627       19.00347
C         -4.35746       32.66181       20.09836
O         -5.52759       32.44870       19.81071
C         -3.65099       32.32297       17.67720
C         -2.63518       32.71028       16.59379
C         -2.94700       32.23989       15.15736
C         -3.18734       30.73131       14.95158
N         -4.57243       30.33517       15.22968
H         -1.64832       31.94230       19.58393
H         -3.59228       34.13284       18.79778
H         -4.67383       32.59494       17.33305
H         -3.59034       31.22823       17.85283
H         -1.64455       32.30612       16.89714
H         -2.55167       33.81880       16.54765
H         -2.04355       32.51710       14.57017
H         -3.80012       32.80686       14.72591
H         -2.46276       30.13009       15.54311
H         -3.00507       30.51180       13.87577
H         -5.22176       30.86429       14.60186
H         -4.68174       29.31606       15.02462
H         -4.84871       30.49741       16.21833
N         -3.96474       32.68775       21.40432
C         -4.86044       32.50166       22.53556
C         -5.04272       33.88885       23.21403
O         -3.83269       34.58673       23.35203
C         -4.37640       31.33358       23.41999
C         -2.94808       31.42735       23.87096
O         -2.13709       30.58957       23.50809
O         -2.55718       32.40831       24.69663
H         -2.99273       32.94308       21.62810
H         -5.85252       32.19161       22.17764
H         -4.47651       30.40750       22.81040
H         -5.03753       31.22208       24.30431
N         -5.86064       33.97905       24.44026
C         -7.22213       33.40213       24.39845
C         -7.87737       33.44081       23.03776
O         -8.21745       32.37821       22.53453
H         -5.96309       35.00196       24.63913
H         -7.86669       33.93823       25.13011
H         -7.16237       32.34732       24.74107
N         -8.05338       34.61220       22.36414
C         -8.49990       34.64654       20.97243
C         -7.42992       35.27078       20.09243
O         -6.47936       35.84861       20.60477
C         -9.87421       35.32317       20.83875
C         -9.90821       36.72474       21.37913
O         -9.20885       37.59667       20.88974
O        -10.72979       37.02630       22.40318
H         -7.79958       35.49826       22.82834
H         -8.62359       33.60866       20.59297
H        -10.61061       34.70965       21.40312
H        -10.18846       35.32978       19.77266
N         -7.47348       35.09117       18.74206
C         -6.37023       35.46872       17.87636
C         -6.41619       36.90222       17.42663
O         -7.36404       37.61637       17.72328
H         -8.22629       34.51002       18.34353
H         -6.39457       34.84070       16.95997
H         -5.41256       35.26704       18.38938
N         -5.39022       37.37203       16.66164
C         -5.35207       38.70508       16.07250
C         -4.22604       39.53383       16.66516
O         -3.46586       39.04059       17.48712
C         -5.23924       38.60100       14.52664
C         -3.94949       37.90751       14.05337
O         -6.35312       37.90286       14.03355
H         -4.59561       36.73975       16.48472
H         -6.29353       39.25032       16.30660
H         -5.24932       39.63494       14.11276
H         -6.41895       38.11053       13.06453
H         -3.90119       37.92547       12.94445
H         -3.05185       38.42512       14.44520
H         -3.91520       36.84722       14.37444
N         -4.10371       40.84144       16.30423
C         -3.11823       41.75966       16.85956
C         -3.88970       42.80003       17.64653
O         -3.66803       42.92737       18.84201
C         -2.24691       42.38402       15.72505
C         -1.54320       41.26096       14.91985
C         -1.22458       43.37470       16.31666
C         -0.71473       41.75816       13.73360
H         -4.78007       41.22332       15.62699
H         -2.43485       41.22876       17.56051
H         -2.90463       42.94459       15.02495
H         -2.32042       40.59373       14.49722
H         -0.89097       40.66036       15.59059
H         -0.63992       43.87336       15.51772
H         -1.73913       44.18361       16.87573
H         -0.52602       42.85194       17.00410
H          0.14639       42.37101       14.06695
H         -0.30726       40.88431       13.18192
H         -1.34844       42.34979       13.03954
N         -4.83800       43.55811       17.02636
C         -5.72442       44.50117       17.71082
C         -6.37936       45.45236       16.70693
O         -6.12275       45.35125       15.51383
C         -6.78905       43.74938       18.56862
C         -7.66737       42.81848       17.72345
O         -6.16216       43.00235       19.57789
H         -4.93784       43.43685       16.00919
H         -5.11226       45.15466       18.37141
H         -7.44309       44.50796       19.05394
H         -6.83024       42.85693       20.29813
H         -8.21024       43.39242       16.94391
H         -7.05115       42.03277       17.23686
H         -8.41836       42.32180       18.37419
N         -7.20332       46.44891       17.13704
C         -7.72223       47.48283       16.25168
C         -7.16617       48.80910       16.73879
O         -6.42892       49.45036       16.00368
C         -9.27157       47.42148       16.16251
C         -9.80202       48.39966       15.10281
O         -9.86339       47.68007       17.40937
H         -7.42245       46.51858       18.14128
H         -7.35245       47.31951       15.21439
H         -9.54476       46.38931       15.84316
H        -10.84531       47.58293       17.29855
H        -10.90535       48.30371       15.01342
H         -9.55553       49.44792       15.37111
H         -9.36016       48.16329       14.11083
N         -7.45171       49.25548       17.99519
C         -6.90742       50.46779       18.58270
C         -6.29271       50.13310       19.93208
O         -6.94959       49.48810       20.73927
C         -8.03849       51.49499       18.73756
C         -7.50892       52.83576       19.26904
C         -8.61766       53.88812       19.30940
C         -8.07844       55.22591       19.82988
N         -9.13169       56.23921       19.84748
H         -8.09818       48.71170       18.58277
H         -6.14600       50.92975       17.91513
H         -8.83463       51.10192       19.40777
H         -8.48130       51.66609       17.73086
H         -6.69643       53.19826       18.60035
H         -7.09333       52.69766       20.29106
H         -9.43854       53.53658       19.97167
H         -9.02058       54.03202       18.28254
H         -7.24788       55.57369       19.17526
H         -7.67951       55.09007       20.86002
H         -8.73706       57.13644       20.21094
H         -9.49345       56.39611       18.87856
H         -9.91358       55.93375       20.47131
N         -5.06076       50.60116       20.27589
C         -4.47446       50.34861       21.58769
C         -4.01841       48.89732       21.71699
O         -4.53551       48.22747       22.59983
C         -3.36956       51.37356       21.92369
C         -3.96200       52.78348       22.10057
C         -2.89450       53.78410       22.43288
O         -1.99347       54.00798       21.64038
O         -2.93454       54.45172       23.60190
H         -4.56454       51.21693       19.61357
H         -5.25445       50.51921       22.36685
H         -2.59712       51.40575       21.13622
H         -2.89008       51.08526       22.88571
H         -4.70645       52.76244       22.92766
H         -4.48005       53.11097       21.17438
N         -3.09331       48.29383       20.91220
C         -2.40126       48.92241       19.80841
H         -1.74223       48.17810       19.31278
H         -3.12435       49.29403       19.05514
H         -1.74261       49.73346       20.16447
H         -2.87597       47.30017       21.08868
Ca        -3.31287       34.92147       25.55001
O         -4.55061       32.91298       27.28434
H         -3.77900       32.34259       27.04162
H         -4.19353       33.52956       27.97202
O         -2.26865       36.40554       27.83371
H         -3.20876       36.37559       28.14332
H         -1.73302       36.18192       28.63528
O          0.12018       36.56014       25.78126
H          0.93744       36.03560       25.97471
H          0.15501       37.31718       26.41882
O         -3.40105       37.71592       24.43324
H         -3.72497       38.12734       25.27370
H         -2.48029       38.06330       24.32466
O         -0.65843       33.31033       27.13603
H          0.24430       33.12068       27.49584
H         -1.10810       32.42834       27.12019

Ca 1.0



