%chk=apoCaM-CA-Ng.loop2.water5.frame394.chk
%nprocshared=20
%mem=10GB
%nosave
#b3lyp/svp scf=(tight,noincore,xqc) Test 
#IOP(5/87=12) Density=Current Pop=(MK,readradii) iop(6/33=2) iop(6/42=6)

apoCaM-CA-Ng.loop2.water5.frame394 

   -2  1 
C         -5.63329       67.49240       35.96615
C         -7.09013       67.12179       35.91959
O         -7.92611       68.01350       35.91113
H         -5.37198       68.10559       35.07863
H         -5.42436       68.07919       36.88472
H         -4.98369       66.59144       35.97470
N         -7.46964       65.81347       35.88258
C         -8.86583       65.38435       35.84003
C         -9.61900       65.84217       37.07798
O         -9.18562       65.54253       38.18225
C         -8.98433       63.84944       35.67916
C         -8.46737       63.04889       36.84895
O         -7.29197       63.09926       37.17276
O         -9.30933       62.25558       37.53854
H         -6.72763       65.09902       35.86160
H         -9.33624       65.82359       34.93190
H         -8.44853       63.53363       34.75812
H        -10.06097       63.60584       35.54070
N        -10.76845       66.56808       36.96596
C        -11.51714       67.03136       38.12997
C        -11.01567       68.39050       38.57005
O        -10.16695       68.95960       37.89399
C        -13.01405       67.08576       37.80203
H        -11.12128       66.80204       36.02462
H        -11.38387       66.31219       38.96917
H        -13.20519       67.80529       36.97665
H        -13.36938       66.08102       37.48904
H        -13.60304       67.39888       38.68950
N        -11.48803       68.97068       39.71181
C        -11.03929       70.27893       40.17799
C        -12.20285       71.24567       40.26902
O        -13.34971       70.84554       40.10116
C        -10.35664       70.16430       41.55667
C         -9.17120       69.24367       41.53226
O         -9.33776       67.93372       41.27251
O         -8.05500       69.67327       41.77570
H        -12.18413       68.46218       40.28046
H        -10.30708       70.71297       39.46106
H        -11.08027       69.79042       42.31312
H        -10.01396       71.17189       41.87801
N        -11.96539       72.56254       40.51265
C        -13.04263       73.52985       40.65648
C        -12.62577       74.99354       40.60030
O        -13.48013       75.82381       40.87008
H        -10.98414       72.84952       40.61142
H        -13.55926       73.31934       41.61796
H        -13.78023       73.39877       39.83403
N        -11.39446       75.40218       40.16353
C        -11.03816       76.79943       39.95654
C        -10.91269       77.03175       38.46557
O        -11.64035       77.86474       37.94161
C         -9.71844       77.14992       40.67643
C         -9.82695       77.04112       42.17590
N        -10.67070       77.84128       42.86937
O         -9.12628       76.23850       42.77429
H        -10.69427       74.71690       39.86416
H        -11.83327       77.47972       40.33448
H         -9.42758       78.19474       40.43137
H         -8.90914       76.47827       40.31506
H        -11.25429       78.53978       42.38666
H        -10.72983       77.77435       43.89634
N        -10.02548       76.31687       37.71325
C         -9.87966       76.48495       36.27581
C         -8.49819       76.97476       35.93224
O         -7.67583       77.14027       36.82409
H         -9.41882       75.62017       38.17184
H        -10.60744       77.22639       35.88346
H        -10.07205       75.51505       35.76941
N         -8.18186       77.27668       34.63999
C         -6.88868       77.85873       34.28773
C         -5.73615       76.88470       34.50222
O         -4.59773       77.33006       34.51589
C         -6.86950       78.44132       32.85017
C         -6.89778       77.37912       31.74110
O         -7.90905       79.37629       32.68562
H         -8.90925       77.15519       33.92002
H         -6.74469       78.72543       34.96865
H         -5.91423       78.99481       32.71766
H         -8.74686       78.88465       32.48111
H         -7.79414       76.72922       31.81874
H         -6.89144       77.87303       30.74737
H         -5.98444       76.76066       31.80230
N         -5.95617       75.54547       34.66073
C         -4.90504       74.56973       34.91271
C         -5.18277       73.94355       36.25809
O         -6.28482       73.45582       36.47381
C         -4.86413       73.47001       33.80638
C         -4.72573       74.04420       32.37620
C         -3.73970       72.44796       34.07772
C         -3.47687       74.89837       32.12809
H         -6.91901       75.18196       34.61202
H         -3.90555       75.05545       34.93851
H         -5.82756       72.91252       33.82451
H         -5.62531       74.64643       32.15661
H         -4.72296       73.20281       31.64938
H         -2.74426       72.93802       34.10630
H         -3.89452       71.93588       35.04727
H         -3.73155       71.66414       33.29068
H         -2.54878       74.31246       32.28381
H         -3.48321       75.25787       31.07793
H         -3.46018       75.78785       32.78645
N         -4.19713       73.86264       37.18971
C         -4.37039       73.17448       38.45815
C         -3.79840       74.00269       39.62259
O         -3.77622       73.51511       40.74256
C         -3.76930       71.76768       38.25128
C         -4.11052       70.73671       39.27984
O         -4.72596       71.01927       40.29637
O         -3.74395       69.45970       39.05706
H         -3.24801       74.17583       36.93109
H         -5.45154       73.01258       38.66626
H         -2.66769       71.82572       38.12197
H         -4.20950       71.36358       37.31391
N         -3.38971       75.29834       39.44255
C         -2.90614       76.16723       40.51626
C         -1.55105       75.71694       41.02824
O         -0.63343       75.63803       40.22328
C         -2.76206       77.62009       40.00218
C         -4.10140       78.22108       39.65530
C         -5.06062       78.42071       40.66438
C         -4.40450       78.59714       38.33617
C         -6.30319       78.97865       40.35854
C         -5.65016       79.15676       38.03578
C         -6.59948       79.34495       39.04440
H         -3.47875       75.72339       38.50977
H         -3.65113       76.17717       41.33406
H         -2.08150       77.62768       39.12035
H         -2.30062       78.26173       40.78515
H         -4.84433       78.14947       41.69013
H         -3.68271       78.45510       37.54120
H         -7.03389       79.12849       41.14260
H         -5.88062       79.44449       37.02054
H         -7.56341       79.77648       38.80883
N         -1.30964       75.46518       42.35460
C          0.00646       75.12789       42.87058
C          0.37128       73.67742       42.60394
O          1.51772       73.31692       42.83130
C         -0.11921       75.43283       44.36633
C         -1.55595       75.03316       44.64248
C         -2.28106       75.59908       43.42212
H          0.78823       75.78729       42.43091
H          0.65139       74.96546       45.01610
H         -0.06690       76.53784       44.50128
H         -1.60231       73.92160       44.59598
H         -1.97449       75.36204       45.61695
H         -3.20857       75.01221       43.24824
H         -2.51753       76.67932       43.54300
N         -0.54715       72.78389       42.13564
C         -0.21340       71.40661       41.79929
C          0.42910       71.33506       40.41529
O          0.84282       70.25426       40.01943
C         -1.48631       70.52840       41.86876
C         -2.08059       70.51957       43.29459
C         -3.38778       69.77779       43.40059
O         -4.38828       70.36779       43.77537
O         -3.47556       68.47417       43.07608
H         -1.52299       73.08435       42.00894
H          0.50385       71.00554       42.55052
H         -1.24313       69.48409       41.57378
H         -2.22669       70.93419       41.15298
H         -2.25979       71.56344       43.62825
H         -1.35059       70.05461       43.98989
N          0.54695       72.43922       39.61839
C          1.15958       72.40348       38.30980
H          2.22112       72.09086       38.39578
H          0.60765       71.70353       37.64903
H          1.12777       73.41813       37.85424
H          0.18888       73.34832       39.92971
Ca        -3.62990       68.18973       40.87802
O         -6.57297       68.28606       43.98319
H         -6.77624       69.15519       44.41174
H         -7.45095       67.83558       43.90585
O         -7.11602       68.49410       39.01862
H         -7.87145       67.85491       39.00452
H         -7.43601       69.26608       38.48775
O         -4.27902       65.77904       38.87412
H         -4.98821       65.29401       39.36522
H         -3.49162       65.73557       39.47286
O         -4.86743       65.66737       43.01919
H         -5.70164       65.13499       43.03995
H         -4.83942       66.11419       43.90219
O         -7.33057       65.85830       41.00383
H         -8.04293       65.46546       41.56829
H         -7.33981       65.31245       40.17863

Ca 1.0



