%chk=apoCaM-CA-Ng.loop3.water2.frame595.chk
%nprocshared=20
%mem=10GB
%nosave
#b3lyp/svp scf=(tight,noincore,xqc) Test 
#IOP(5/87=12) Density=Current Pop=(MK,readradii) iop(6/33=2) iop(6/42=6)

apoCaM-CA-Ng.loop3.water2.frame595 

   0  1 
C         40.63501       18.76287       68.60797
C         41.35601       19.16552       67.35605
O         40.90228       18.83396       66.26977
H         39.72222       18.17662       68.36808
H         41.30319       18.14638       69.24398
H         40.33316       19.67248       69.16993
N         42.48777       19.91826       67.43783
C         43.19961       20.39982       66.26063
C         43.80716       19.23760       65.48960
O         44.69041       18.57721       66.02059
C         44.29035       21.40811       66.69075
C         44.90715       22.15774       65.54822
O         45.86816       23.06922       65.78887
O         44.52827       21.97203       64.40633
H         42.81505       20.20078       68.37543
H         42.46911       20.94236       65.62709
H         45.08119       20.88444       67.27021
H         43.83496       22.16800       67.35101
N         43.35393       18.90212       64.24471
C         43.88594       17.74989       63.51785
C         45.30291       17.95835       62.99275
O         45.91059       16.97007       62.60452
C         42.96084       17.29419       62.36464
C         42.73986       18.34209       61.25783
C         41.95829       17.72358       60.09028
C         41.63858       18.76528       59.01091
N         40.97268       18.14148       57.86704
H         42.55763       19.42849       63.85810
H         43.91187       16.89838       64.23543
H         41.97155       17.00536       62.78300
H         43.41043       16.38164       61.91280
H         43.71563       18.70706       60.87071
H         42.17414       19.20511       61.66700
H         41.00366       17.28847       60.45959
H         42.57201       16.90878       59.64586
H         42.57658       19.25186       58.66334
H         40.97555       19.54735       59.44435
H         40.72921       18.87873       57.16687
H         41.61455       17.44883       57.41656
H         40.09567       17.66043       58.17270
N         45.87505       19.19548       62.89124
C         47.21978       19.41100       62.35645
C         48.16264       20.08171       63.35768
O         49.33893       20.21207       63.04703
C         47.15388       20.12548       60.98424
C         46.48767       21.50403       60.89000
O         47.07984       22.44382       61.72601
O         45.11919       21.49207       61.17241
H         45.32630       20.01794       63.16432
H         47.69856       18.43038       62.14286
H         46.60796       19.46391       60.27785
H         48.18998       20.22827       60.59524
N         47.74473       20.46256       64.59858
C         48.61783       20.95165       65.65667
C         49.25995       22.31413       65.45986
O         49.86809       22.76435       66.42131
H         46.76430       20.31355       64.86531
H         49.40842       20.19864       65.86577
H         47.99722       21.04025       66.57620
N         49.20027       23.03377       64.29836
C         49.78357       24.37168       64.17271
C         48.75129       25.39329       63.71583
O         47.61735       25.03503       63.42732
C         51.07473       24.34365       63.30821
C         51.01175       24.02840       61.82504
N         49.85884       23.84221       61.14445
O         52.06909       23.95801       61.21623
H         48.74256       22.62753       63.47907
H         50.12485       24.71887       65.17234
H         51.75200       23.59521       63.77554
H         51.57776       25.33032       63.39673
H         48.94693       23.92022       61.59529
H         49.88001       23.63573       60.13461
N         49.08757       26.70948       63.65442
C         48.19002       27.76644       63.21987
C         46.96652       27.89315       64.09931
O         47.10403       27.89241       65.31488
H         50.04148       26.98880       63.92870
H         47.90417       27.61992       62.15589
H         48.74413       28.72726       63.28607
N         45.73863       28.10571       63.54126
C         44.54375       28.36562       64.34321
C         43.98299       27.08168       64.94488
O         44.55158       26.02219       64.73425
C         43.48229       29.14991       63.52768
C         42.75485       28.36008       62.46774
C         43.22944       28.30529       61.14789
C         41.55198       27.70808       62.79014
C         42.51740       27.59899       60.17267
C         40.84778       27.00027       61.81902
C         41.32614       26.94420       60.50347
O         40.65223       26.26908       59.55109
H         45.68353       28.20072       62.51724
H         44.82687       29.06232       65.16397
H         43.93674       30.06224       63.08271
H         42.71729       29.55265       64.22617
H         44.14167       28.81551       60.86872
H         41.14981       27.74862       63.79331
H         42.88936       27.56415       59.15702
H         39.93035       26.50433       62.09725
H         39.82707       25.80042       59.73820
N         42.84224       27.12595       65.70003
C         42.16669       25.98549       66.31999
C         41.68309       24.96537       65.28867
O         42.50481       24.43653       64.55069
C         43.05106       25.28893       67.39961
C         42.24506       24.23803       68.22135
C         43.73050       26.29994       68.33943
C         41.11320       24.80385       69.09161
H         42.40756       28.04526       65.86075
H         41.28347       26.40349       66.84447
H         43.87185       24.74583       66.88291
H         42.94435       23.70408       68.89985
H         41.80858       23.48332       67.53396
H         42.98651       26.93209       68.86440
H         44.35055       25.76237       69.08883
H         44.40979       26.96693       67.76909
H         40.33786       25.31465       68.48791
H         40.61625       23.97117       69.63160
H         41.50884       25.50696       69.85272
N         40.37792       24.55583       65.25503
C         39.93404       23.43591       64.42264
C         38.68666       23.69394       63.58545
O         38.39815       22.85922       62.74007
C         39.65338       22.23371       65.33822
O         38.59648       22.53160       66.21143
H         39.72096       24.95876       65.94046
H         40.74471       23.14077       63.71875
H         40.56847       22.02274       65.92759
H         39.39460       21.33817       64.73069
H         38.58881       21.81404       66.89639
N         37.83097       24.73304       63.82587
C         36.53801       24.82384       63.14397
C         36.69773       25.13423       61.66252
O         37.72295       25.68662       61.29581
C         35.65679       25.88114       63.81249
H         38.04395       25.40285       64.57580
H         36.04242       23.83744       63.27365
H         35.51341       25.61808       64.88286
H         36.13453       26.88089       63.74802
H         34.65982       25.92984       63.33115
N         35.78192       24.77578       60.71187
C         34.55803       24.01637       60.95798
C         33.41616       24.50207       60.06599
O         33.69803       24.96459       58.96914
C         34.84669       22.54829       60.63891
H         36.04312       24.95386       59.72881
H         34.26750       24.06394       62.01656
H         35.67032       22.18207       61.28917
H         33.95467       21.91593       60.82202
H         35.15799       22.43319       59.57844
N         32.09181       24.33812       60.37180
C         31.56928       23.79884       61.62320
C         31.87451       24.72477       62.78637
O         32.43839       24.26752       63.77084
C         30.05024       23.45234       61.54882
C         29.00745       24.58567       61.42227
C         29.04177       25.31598       60.11145
O         29.23706       26.64788       60.08187
O         28.86089       24.71022       59.06682
H         31.42114       24.59712       59.63696
H         32.05040       22.81362       61.80736
H         29.80535       22.92130       62.49585
H         29.88994       22.72404       60.72343
H         29.10791       25.29422       62.26887
H         27.99779       24.12809       61.50792
N         31.54801       26.04684       62.72918
C         31.80475       26.98486       63.80227
H         32.47635       27.78815       63.43377
H         30.84526       27.43936       64.12673
H         32.28033       26.50389       64.68227
H         31.10800       26.42093       61.87747
Ca        45.14752       23.48718       62.27997
O         46.09090       25.55219       60.26401
H         46.27373       24.75919       59.69976
H         46.94631       25.72431       60.73144
O         42.63451       24.20580       60.96932
H         42.24452       23.30112       61.06406
H         43.02033       24.21885       60.05731

Ca 1.0



