%chk=apoCaM-CA-Ng.loop2.water5.frame1275.chk
%nprocshared=20
%mem=10GB
%nosave
#b3lyp/svp scf=(tight,noincore,xqc) Test 
#IOP(5/87=12) Density=Current Pop=(MK,readradii) iop(6/33=2) iop(6/42=6)

apoCaM-CA-Ng.loop2.water5.frame1275 

   -2  1 
C         67.72511       50.34585        8.81268
C         66.82362       50.60071        7.63409
O         66.48078       49.63787        6.96297
H         68.67056       50.91540        8.70181
H         67.23058       50.60039        9.76548
H         67.98051       49.26581        8.87169
N         66.40880       51.84630        7.25373
C         66.75986       53.10573        7.91906
C         66.63427       54.30552        6.97674
O         66.25274       54.12482        5.83194
C         65.99300       53.27260        9.26099
C         64.49764       53.01639        9.29874
O         63.96288       52.96982       10.39505
O         63.73686       52.74746        8.21373
H         65.84318       51.88799        6.39293
H         67.84897       53.09738        8.14306
H         66.20860       54.25960        9.71717
H         66.41898       52.53898        9.96418
N         67.00536       55.55876        7.39727
C         67.02157       56.79586        6.59972
C         66.99498       56.57374        5.09721
O         67.85638       55.87250        4.58159
C         68.26418       57.62343        6.94168
H         67.28993       55.66039        8.38217
H         66.15390       57.41460        6.91690
H         69.19594       57.08344        6.67377
H         68.23215       58.59033        6.39180
H         68.27874       57.85532        8.02828
N         66.03793       57.16492        4.33164
C         65.87742       56.90566        2.90324
C         66.21433       58.13827        2.09388
O         66.57024       59.16283        2.66155
C         64.42318       56.43975        2.66188
C         64.14136       55.24577        3.52606
O         63.33552       55.38803        4.59357
O         64.75251       54.20255        3.35800
H         65.36949       57.80973        4.78204
H         66.57159       56.10544        2.56367
H         64.22400       56.19033        1.59875
H         63.73832       57.26579        2.95696
N         66.13320       58.09743        0.73486
C         66.42678       59.23208       -0.12062
C         65.54941       60.40095        0.23484
O         66.06805       61.48087        0.48142
H         65.83215       57.22416        0.27695
H         66.22969       58.94310       -1.17567
H         67.49991       59.51211       -0.03338
N         64.20111       60.23301        0.32631
C         63.28115       61.29725        0.70352
C         62.65138       60.96589        2.05008
O         62.65378       59.80897        2.45065
C         62.23450       61.42693       -0.42602
C         61.27558       62.58640       -0.29877
N         61.23692       63.54884       -1.25059
O         60.50166       62.64365        0.64382
H         63.80932       59.29477        0.14703
H         63.83734       62.25536        0.80693
H         61.64812       60.48408       -0.49187
H         62.79265       61.53717       -1.38133
H         61.86177       63.51180       -2.06939
H         60.57134       64.33195       -1.17602
N         62.11641       61.94924        2.82428
C         61.47048       61.65633        4.09919
C         60.93745       62.89755        4.79309
O         61.12212       63.99535        4.28671
H         62.17695       62.91914        2.48156
H         62.20131       61.15991        4.77530
H         60.61922       60.96913        3.90805
N         60.26345       62.84244        5.97773
C         59.94435       61.63434        6.73114
C         58.43958       61.55223        6.94081
O         57.84146       62.52987        7.36542
C         60.68721       61.67575        8.08566
C         60.36118       60.45842        8.96509
O         62.06946       61.69789        7.83234
H         59.96268       63.73974        6.39189
H         60.29045       60.71643        6.21048
H         60.38171       62.60037        8.63079
H         62.49964       62.17623        8.58778
H         59.28148       60.43599        9.22524
H         60.62539       59.51397        8.44282
H         60.93476       60.51421        9.91412
N         57.78701       60.37055        6.74988
C         56.37152       60.15375        7.04191
C         56.28353       59.39414        8.36385
O         56.93666       58.36581        8.47550
C         55.70492       59.35385        5.87813
C         55.72858       60.19715        4.57664
C         54.26251       58.93381        6.23931
C         55.19051       59.46029        3.34715
H         58.34642       59.54579        6.48172
H         55.84395       61.12140        7.12871
H         56.28934       58.42001        5.71751
H         56.77659       60.48702        4.34956
H         55.13658       61.12765        4.72285
H         54.24995       58.31863        7.16301
H         53.61321       59.82085        6.38784
H         53.81985       58.29306        5.45130
H         55.77588       58.53443        3.16601
H         54.11760       59.20427        3.45873
H         55.27978       60.11805        2.45709
N         55.50013       59.78498        9.41838
C         54.54472       60.89463        9.39447
C         53.34059       60.63645       10.28831
O         53.42513       59.85227       11.22387
C         55.21841       62.23309        9.76181
C         55.90999       62.18573       11.10109
O         55.21108       61.94446       12.22679
O         57.11391       62.37586       11.17266
H         55.51124       59.17338       10.24818
H         54.10424       60.95816        8.38023
H         54.46239       63.04844        9.76973
H         55.96734       62.48728        8.99034
N         52.16016       61.27013       10.02058
C         50.95955       61.12279       10.83139
C         49.83660       60.48083       10.01328
O         49.44935       61.08916        9.02310
C         50.48882       62.52621       11.28610
C         49.23742       62.47691       12.13611
C         47.97656       62.72883       11.56230
C         49.31822       62.18700       13.50768
C         46.81985       62.68235       12.34624
C         48.15914       62.15882       14.29218
C         46.91131       62.40243       13.71131
H         52.10881       61.89061        9.19704
H         51.19528       60.54325       11.73609
H         50.28246       63.13378       10.37624
H         51.28845       63.06732       11.83705
H         47.88556       62.94781       10.50574
H         50.27837       61.99989       13.97100
H         45.85243       62.86607       11.89576
H         48.22723       61.94942       15.35172
H         46.01525       62.37577       14.31853
N         49.18624       59.32383       10.37448
C         49.47756       58.46997       11.51616
C         50.24682       57.22893       11.04166
O         49.81061       56.11293       11.29368
C         48.06407       58.12359       11.99792
C         47.35732       57.85691       10.66760
C         47.89125       58.99427        9.79888
H         50.04340       58.95561       12.32916
H         48.00403       57.29987       12.74070
H         47.61871       59.03923       12.45265
H         47.72938       56.89593       10.25572
H         46.24961       57.79638       10.71557
H         47.92862       58.73919        8.71797
H         47.22861       59.87590        9.95133
N         51.38795       57.35953       10.30613
C         52.12277       56.22299        9.74631
C         52.08847       56.28495        8.22018
O         51.70037       57.31375        7.68380
C         53.57252       56.25179       10.27276
C         53.62775       56.02617       11.78812
C         55.04846       56.03219       12.27358
O         55.52070       55.03903       12.80355
O         55.80833       57.13460       12.12989
H         51.72920       58.30625       10.09166
H         51.63808       55.26843       10.04191
H         54.03631       57.22703       10.00957
H         54.18331       55.46392        9.80193
H         53.16188       55.04248       12.02132
H         53.06314       56.82005       12.32085
N         52.41863       55.22686        7.41933
C         52.78067       53.90521        7.89324
H         53.72894       53.91433        8.45586
H         51.96616       53.48444        8.51932
H         52.93070       53.22673        7.02645
H         52.35377       55.35249        6.39685
Ca        63.61100       54.01106        6.35610
O         60.17946       54.88683        5.36675
H         60.24944       55.87165        5.29335
H         59.23270       54.72075        5.60457
O         63.64061       51.05132        5.06437
H         64.23943       51.03091        4.27599
H         63.92389       50.27709        5.61259
O         60.79043       53.97975        8.22229
H         60.98918       54.69910        8.87280
H         60.89948       53.14150        8.73763
O         61.52263       52.74551        3.66099
H         60.70478       52.49509        3.16275
H         62.08103       53.21979        2.99560
O         63.02849       56.47082        7.92826
H         63.95112       56.33499        8.26143
H         63.11212       57.18107        7.24360

Ca 1.0



