%chk=apoCaM-CA-Ng.loop4.water5.frame885.chk
%nprocshared=20
%mem=10GB
%nosave
#b3lyp/svp scf=(tight,noincore,xqc) Test 
#IOP(5/87=12) Density=Current Pop=(MK,readradii) iop(6/33=2) iop(6/42=6)

apoCaM-CA-Ng.loop4.water5.frame885 

   -3  1 
C         23.65278       17.17365       -0.29485
C         24.47132       17.51306       -1.50199
O         24.13725       17.05908       -2.58721
H         22.80048       16.51603       -0.57289
H         24.28685       16.63735        0.44187
H         23.25499       18.10238        0.16290
N         25.57321       18.31229       -1.38345
C         26.44754       18.65121       -2.50028
C         25.66001       19.42643       -3.54482
O         25.37426       18.89941       -4.60943
C         27.15140       17.37100       -3.01530
C         28.20496       17.65914       -4.04666
O         29.22041       18.49785       -3.76373
O         28.17074       17.09843       -5.12948
H         25.81330       18.68679       -0.45284
H         27.26032       19.31596       -2.12979
H         26.42122       16.64068       -3.42261
H         27.66714       16.89599       -2.15338
N         25.27507       20.70887       -3.27861
C         24.45161       21.52311       -4.16931
C         25.29424       22.67224       -4.70890
O         25.84422       23.40259       -3.89552
C         23.23392       22.10530       -3.38578
C         22.45593       21.04878       -2.56057
C         22.29157       22.87985       -4.32916
C         21.83122       19.91638       -3.37278
H         25.58830       21.13703       -2.39294
H         24.05731       20.90644       -4.99724
H         23.62044       22.83126       -2.63443
H         21.64839       21.56453       -1.99526
H         23.13982       20.60001       -1.80812
H         21.45156       23.32556       -3.75589
H         22.82955       23.70993       -4.83353
H         21.87810       22.21523       -5.11582
H         22.61046       19.34227       -3.91265
H         21.30874       19.22445       -2.67868
H         21.08617       20.30724       -4.09427
N         25.43792       22.96317       -6.03703
C         24.83499       22.23463       -7.15346
C         25.43140       20.84907       -7.26748
O         24.69444       19.87303       -7.28910
C         25.07118       22.98948       -8.48020
C         24.45287       24.36121       -8.45195
O         25.14897       25.35215       -8.60583
O         23.12730       24.50306       -8.25931
H         26.00495       23.79652       -6.26310
H         23.73291       22.16849       -7.01124
H         24.60855       22.42102       -9.31623
H         26.16187       23.07689       -8.68225
N         26.78203       20.69732       -7.30562
C         27.44116       19.40802       -7.32648
C         27.38394       18.70436       -8.65979
O         26.78631       19.19547       -9.60742
H         27.37869       21.53483       -7.22450
H         27.02962       18.76406       -6.52927
H         28.51965       19.57526       -7.11341
N         28.09819       17.55306       -8.80084
C         28.32050       16.88552      -10.07843
C         27.09036       16.25194      -10.71162
O         27.21154       15.84201      -11.85709
C         29.46372       15.84217       -9.95972
C         29.16736       14.67619       -9.04438
O         28.91686       14.86647       -7.73502
O         29.20008       13.53776       -9.48101
H         28.61842       17.22766       -7.97398
H         28.68461       17.66649      -10.78314
H         30.37670       16.35286       -9.58552
H         29.69667       15.45077      -10.97531
N         25.88881       16.11412      -10.07552
C         24.75330       15.47552      -10.73560
C         24.97748       13.99740      -11.03680
O         24.17175       13.42455      -11.75557
H         25.76277       16.47204       -9.11799
H         24.55853       16.01877      -11.68646
H         23.84138       15.56089      -10.10615
N         26.02474       13.30665      -10.49575
C         26.32273       11.89726      -10.73932
C         25.21860       10.95863      -10.27134
O         25.22421        9.80304      -10.67390
C         26.76952       11.62254      -12.19557
C         27.94055       12.53452      -12.60401
C         28.57837       12.17410      -13.92145
N         29.59207       12.93315      -14.39905
O         28.20171       11.19942      -14.55588
H         26.65383       13.79132       -9.84522
H         27.20705       11.63080      -10.11802
H         25.92966       11.75011      -12.91129
H         27.11602       10.56542      -12.24385
H         28.73783       12.48794      -11.83301
H         27.56527       13.57185      -12.67309
H         29.91849       13.76072      -13.87749
H         30.05077       12.69768      -15.29137
N         24.31113       11.35081       -9.32854
C         23.32593       10.44440       -8.73994
C         23.58626       10.21221       -7.25844
O         22.97517        9.30266       -6.71236
C         21.87557       10.96617       -8.94160
C         21.65002       12.34470       -8.28859
C         21.50681       11.02215      -10.42717
H         24.35289       12.31582       -8.97780
H         23.40486        9.44259       -9.21780
H         21.17852       10.24503       -8.45814
H         22.27695       13.12782       -8.76345
H         20.58821       12.64948       -8.39529
H         21.88348       12.31154       -7.20362
H         21.60671       10.01383      -10.88175
H         20.45143       11.35006      -10.54328
H         22.16210       11.73163      -10.97313
N         24.41639       11.01463       -6.52595
C         24.62287       10.84889       -5.09477
C         26.11660       10.77159       -4.79178
O         26.92655       10.93347       -5.69621
C         23.87359       11.99866       -4.38692
C         23.78852       11.87124       -2.88866
N         24.18638       12.88506       -2.08865
O         23.31873       10.85776       -2.39232
H         24.87485       11.82412       -6.96385
H         24.16463        9.89244       -4.75799
H         22.82328       11.98114       -4.75295
H         24.31734       12.97389       -4.68310
H         24.54347       13.76161       -2.49336
H         24.11594       12.80419       -1.06372
N         26.55041       10.42961       -3.54912
C         27.95862       10.16397       -3.24527
C         28.10587        9.36933       -1.95534
O         27.10973        9.10157       -1.29500
C         28.82034       11.45224       -3.21680
C         28.48061       12.39897       -2.08890
C         27.39299       13.27654       -2.19796
C         29.27359       12.43271       -0.92702
C         27.10283       14.17475       -1.16398
C         28.97461       13.32168        0.10984
C         27.89200       14.19858       -0.00659
O         27.62360       15.06223        0.99297
H         25.83067       10.23424       -2.84147
H         28.35599        9.49667       -4.04240
H         28.78714       11.99760       -4.18374
H         29.88002       11.14172       -3.10455
H         26.78521       13.27679       -3.09274
H         30.12010       11.76612       -0.81905
H         26.26920       14.85790       -1.26180
H         29.58950       13.33269        1.00131
H         26.88800       15.68982        0.95025
N         29.33191        8.93103       -1.54311
C         29.50159        8.13275       -0.33995
C         30.32315        8.91226        0.67453
O         31.53065        8.99634        0.49646
C         30.16384        6.77952       -0.66978
C         29.32524        5.95065       -1.65418
C         29.99026        4.63824       -1.95416
O         29.36685        3.48219       -1.65727
O         31.09263        4.61171       -2.47863
H         30.17144        9.16249       -2.09497
H         28.51793        7.89289        0.08339
H         30.28870        6.19945        0.27166
H         31.17037        6.95858       -1.10996
H         29.19286        6.50423       -2.60872
H         28.32242        5.76257       -1.21274
N         29.77438        9.57652        1.73878
C         28.33801        9.72708        1.98349
C         27.62977        8.42212        2.31050
O         28.27653        7.40470        2.52245
C         28.07131       10.76224        3.10342
C         28.59662       10.32535        4.48439
C         28.24836       11.34303        5.52938
O         26.95718       11.61649        5.79654
O         29.12886       11.91372        6.15289
H         30.42946       10.09846        2.34042
H         27.89546       10.13886        1.05006
H         26.97620       10.93953        3.17468
H         28.54569       11.72674        2.81962
H         29.69840       10.19422        4.45097
H         28.14032        9.35856        4.78433
N         26.26839        8.39098        2.33971
C         25.52366        7.18260        2.61065
H         24.43370        7.39449        2.56203
H         25.76664        6.40990        1.85051
H         25.76957        6.80398        3.62439
H         25.73641        9.25185        2.14023
Ca        26.52614       14.44755        6.65730
O         27.31743       15.95047        9.14094
H         27.20303       16.93152        9.07329
H         27.96633       15.82357        9.87762
O         29.35769       15.77719        6.40317
H         29.31338       16.67237        5.98223
H         30.31440       15.52686        6.35687
O         25.22084       13.20719        9.11676
H         24.98642       14.08339        9.51398
H         24.36021       12.72181        9.05674
O         28.29065       12.76800        9.11386
H         28.15733       11.87378        9.51772
H         29.07023       13.14449        9.59427
O         27.84164       14.47872        3.97491
H         28.72647       14.55145        3.53702
H         27.34486       13.81686        3.43161

Ca 1.0



