%chk=apoCaM-CA-Ng.loop1.water3.frame1245.chk
%nprocshared=20
%mem=10GB
%nosave
#b3lyp/svp scf=(tight,noincore,xqc) Test 
#IOP(5/87=12) Density=Current Pop=(MK,readradii) iop(6/33=2) iop(6/42=6)

apoCaM-CA-Ng.loop1.water3.frame1245 

   0  1 
C         49.41964       20.83010       46.19767
C         47.97628       20.70813       45.79320
O         47.70665       20.23447       44.69851
H         49.95344       21.48476       45.47611
H         49.52419       21.27758       47.20939
H         49.89740       19.82895       46.20441
N         46.98677       21.12166       46.63650
C         45.55555       21.05650       46.32825
C         45.07821       22.13960       45.34488
O         43.88388       22.39335       45.29575
C         44.72335       21.12524       47.63538
C         44.73242       22.47331       48.31182
O         43.57611       23.14654       48.46700
O         45.76871       22.95847       48.73439
H         47.27513       21.43920       47.57290
H         45.32403       20.05154       45.90983
H         45.08361       20.34795       48.34378
H         43.66820       20.87491       47.38620
N         45.94110       22.80121       44.51951
C         45.55940       23.88102       43.60903
C         44.35140       23.50520       42.75624
O         43.38207       24.25162       42.81754
C         46.77134       24.32988       42.74465
C         47.91358       24.90924       43.60729
C         49.20277       25.09795       42.79978
C         50.33829       25.58899       43.71175
N         51.60831       25.64915       42.99052
H         46.91956       22.51811       44.51397
H         45.25816       24.76295       44.21883
H         46.45742       25.10908       42.01530
H         47.15493       23.46807       42.16576
H         48.16869       24.21793       44.43303
H         47.58563       25.86994       44.06104
H         49.04124       25.81466       41.96574
H         49.49595       24.11275       42.37341
H         50.45380       24.88961       44.57081
H         50.08507       26.59520       44.11309
H         51.86970       24.69468       42.65035
H         51.53613       26.30698       42.18159
H         52.35383       25.98594       43.64206
N         44.24703       22.39229       41.97238
C         45.25680       21.35074       41.79410
C         44.76033       20.01497       42.33113
O         43.62263       19.91133       42.76257
C         45.67715       21.29950       40.31500
C         44.50069       21.19505       39.38833
O         43.68464       20.12604       39.42529
O         44.26740       22.10857       38.61453
H         43.35285       22.26213       41.47343
H         46.16003       21.56692       42.38406
H         46.38491       20.46545       40.12642
H         46.20842       22.25028       40.08550
N         45.63339       18.96844       42.43785
C         45.31023       17.74454       43.15444
C         44.33752       16.83432       42.45047
O         43.95588       17.09585       41.31557
H         46.60422       19.09621       42.11844
H         44.91405       18.01826       44.15667
H         46.24059       17.15597       43.30912
N         43.87914       15.72928       43.10576
C         42.95075       14.74900       42.54426
C         43.37374       13.32247       42.92956
O         44.25381       13.18851       43.77503
C         41.53134       15.09753       43.05453
C         41.13187       16.42702       42.48638
O         40.91962       17.38140       43.21620
O         41.09173       16.57454       41.14761
H         44.15262       15.62200       44.09789
H         42.97087       14.82217       41.43649
H         41.52757       15.12085       44.16693
H         40.76417       14.37624       42.74056
N         42.84039       12.18454       42.38764
C         41.87225       12.13960       41.29959
C         42.45898       12.65540       40.01022
O         43.66655       12.76233       39.89268
H         43.16279       11.27487       42.75152
H         40.95996       12.68897       41.56816
H         41.54949       11.09241       41.11697
N         41.62781       13.02159       38.99492
C         42.09967       13.56012       37.72160
C         43.00875       14.76725       37.93016
O         42.66361       15.66363       38.68469
C         40.89386       13.90360       36.81131
C         41.33576       14.45685       35.44819
O         40.05354       14.82740       37.45117
H         40.61305       12.93318       39.15183
H         42.67797       12.76830       37.19599
H         40.33791       12.95089       36.64130
H         39.15530       14.73404       37.03773
H         41.87587       15.42064       35.56475
H         42.00189       13.73161       34.93478
H         40.44750       14.63608       34.80683
N         44.18451       14.83811       37.23647
C         45.18022       15.90711       37.28533
C         44.59210       17.26030       36.93221
O         43.78777       17.79037       37.68398
C         45.95284       15.95732       38.63193
C         46.54279       14.58182       39.03430
C         47.06564       17.02734       38.58698
C         47.46603       13.93244       37.99825
H         44.39220       14.07112       36.57873
H         45.93723       15.66417       36.50893
H         45.25198       16.24877       39.43600
H         45.71328       13.87791       39.22155
H         47.09787       14.69675       39.99089
H         47.79466       16.81693       37.77671
H         46.63986       18.03707       38.40879
H         47.60588       17.06617       39.55620
H         48.33849       14.57601       37.77019
H         47.83833       12.96670       38.39884
H         46.91529       13.70888       37.06130
N         45.00826       17.89953       35.80602
C         44.56971       19.23626       35.43422
C         43.76545       19.22822       34.14838
O         43.31563       20.29800       33.76000
C         45.79019       20.19113       35.35288
C         46.82577       19.79163       34.29564
O         46.43591       20.23532       36.59784
H         45.67787       17.41987       35.18779
H         43.88626       19.65025       36.20913
H         45.43250       21.21287       35.07826
H         45.96516       20.91619       37.13992
H         46.36682       19.75052       33.28651
H         47.64363       20.54321       34.28043
H         47.28448       18.80942       34.53128
N         43.51838       18.08405       33.43732
C         42.69645       18.09240       32.23251
C         41.27686       18.47320       32.62295
O         40.59070       17.65255       33.21406
C         42.74349       16.72396       31.49668
C         44.16842       16.41863       30.98365
O         42.24496       15.69325       32.32657
H         43.91529       17.18907       33.75428
H         43.11260       18.85794       31.53965
H         42.09086       16.77797       30.59880
H         42.97024       15.05811       32.56438
H         44.17530       15.45167       30.43734
H         44.50609       17.21639       30.28956
H         44.89496       16.34824       31.82108
N         40.81678       19.74412       32.40636
C         39.53441       20.26997       32.88004
C         39.43035       20.22210       34.39670
O         39.63741       19.17544       34.98942
C         38.32458       19.59165       32.22542
C         38.36197       19.74381       30.69929
C         37.03407       19.30526       30.07883
C         37.08112       19.40645       28.55039
N         35.78743       19.05364       27.96812
H         41.43552       20.40944       31.91827
H         39.47335       21.34055       32.57834
H         37.41748       20.11046       32.61102
H         38.25217       18.51835       32.50109
H         39.20237       19.13959       30.29293
H         38.52878       20.81149       30.43144
H         36.22638       19.96736       30.46434
H         36.80800       18.25716       30.37070
H         37.86374       18.71669       28.16296
H         37.34545       20.44430       28.24682
H         35.05793       19.73369       28.28442
H         35.85818       19.09456       26.92602
H         35.51407       18.08547       28.25384
N         39.06255       21.32615       35.10181
C         39.03009       21.32756       36.55720
C         40.45208       21.27131       37.09810
O         40.73766       20.33763       37.83105
C         38.21159       22.50796       37.11624
C         36.72547       22.36068       36.74597
C         35.91144       23.49349       37.29615
O         34.91973       23.24819       38.17368
O         36.13283       24.63968       36.93959
H         38.79200       22.18079       34.59187
H         38.49098       20.41822       36.91308
H         38.58630       23.47516       36.74001
H         38.28943       22.50311       38.22674
H         36.33988       21.40310       37.16239
H         36.59942       22.33614       35.64295
N         41.43490       22.16622       36.78628
C         41.29779       23.31301       35.91542
H         40.59297       24.04913       36.33946
H         42.27855       23.82653       35.82500
H         40.99099       23.00115       34.89817
H         42.36833       22.00243       37.18133
Ca        41.08260       18.60032       40.17216
O         40.62392       20.78310       42.04111
H         41.21345       21.18088       42.72902
H         40.28982       19.94787       42.45497
O         40.72876       17.53173       37.34571
H         41.27567       17.81177       36.56986
H         39.80589       17.46484       36.99383
O         38.15966       18.45415       39.71526
H         38.58111       17.60883       39.41731
H         38.51753       19.14058       39.09800

Ca 1.0



