%chk=apoCaM-CA-Ng.loop4.water4.frame668.chk
%nprocshared=20
%mem=10GB
%nosave
#b3lyp/svp scf=(tight,noincore,xqc) Test 
#IOP(5/87=12) Density=Current Pop=(MK,readradii) iop(6/33=2) iop(6/42=6)

apoCaM-CA-Ng.loop4.water4.frame668 

   -3  1 
C         -4.41167       56.39213      112.12549
C         -3.85496       56.92929      113.40992
O         -3.87290       58.13611      113.60515
H         -4.78712       57.21824      111.48509
H         -3.62944       55.83632      111.57181
H         -5.25424       55.70428      112.34582
N         -3.36482       56.07243      114.35282
C         -2.85784       56.49069      115.65547
C         -3.94936       57.25910      116.39466
O         -3.74961       58.43505      116.67128
C         -1.57623       57.36445      115.53977
C         -0.40477       56.80804      114.77962
O         -0.43493       55.63309      114.12327
O          0.60018       57.49518      114.69537
H         -3.38473       55.06061      114.15259
H         -2.58666       55.58725      116.24568
H         -1.22728       57.58859      116.57229
H         -1.82495       58.32948      115.04896
N         -5.14199       56.67574      116.73055
C         -6.23171       57.45105      117.33802
C         -6.35512       57.13424      118.82073
O         -5.81672       56.11524      119.23276
C         -7.55955       57.31759      116.52087
C         -8.25034       55.92573      116.57595
C         -7.29000       57.68522      115.04989
C         -8.94132       55.60655      117.90735
H         -5.27536       55.66962      116.55024
H         -5.94630       58.50730      117.27447
H         -8.29462       58.06048      116.88816
H         -7.54211       55.11662      116.30052
H         -9.07220       55.92148      115.82654
H         -6.84985       58.70241      114.97742
H         -6.59713       56.95746      114.57697
H         -8.23821       57.68353      114.47066
H         -9.48844       54.64516      117.81511
H         -8.23871       55.48853      118.74782
H         -9.67693       56.40226      118.15551
N         -6.98819       57.94069      119.73206
C         -7.57008       59.26452      119.48455
C         -6.51201       60.20131      118.93442
O         -6.72791       60.80575      117.89221
C         -8.14340       59.83429      120.80134
C         -8.76142       61.19340      120.61531
O         -9.69797       61.34605      119.84738
O         -8.28468       62.24918      121.30238
H         -6.99938       57.59932      120.70706
H         -8.41490       59.18352      118.77066
H         -7.33630       59.90342      121.56344
H         -8.92465       59.14429      121.18805
N         -5.29820       60.28379      119.54208
C         -4.17469       60.99815      118.97087
C         -4.31008       62.49639      119.00424
O         -5.30306       63.03445      119.47407
H         -5.12486       59.72341      120.39030
H         -4.00985       60.66067      117.92600
H         -3.26523       60.74405      119.55749
N         -3.26133       63.23204      118.54910
C         -3.17608       64.68309      118.64311
C         -4.18506       65.45465      117.80087
O         -4.22350       66.66584      117.96493
C         -1.73470       65.15588      118.30073
C         -1.21147       64.76006      116.93550
O          0.01636       65.16540      116.56156
O         -1.85832       64.05272      116.17876
H         -2.44045       62.71008      118.20472
H         -3.36320       64.95849      119.70491
H         -1.03516       64.72691      119.04934
H         -1.68536       66.26266      118.39214
N         -5.01239       64.88063      116.87619
C         -5.89383       65.69236      116.03993
C         -5.13374       66.59205      115.06708
O         -5.76691       67.40529      114.41016
H         -5.01896       63.85961      116.74422
H         -6.53491       66.31481      116.70311
H         -6.56174       65.03675      115.44115
N         -3.78058       66.48333      114.90580
C         -2.94521       67.30489      114.03777
C         -3.23162       67.11693      112.55548
O         -2.62691       67.82628      111.76252
C         -2.93254       68.78454      114.48400
C         -2.51384       68.89658      115.96394
C         -2.25391       70.30180      116.43922
N         -1.90158       70.51090      117.72946
O         -2.34434       71.25073      115.67420
H         -3.27843       65.77158      115.43454
H         -1.89252       66.96037      114.16077
H         -3.91922       69.27050      114.32967
H         -2.17761       69.31639      113.86313
H         -1.58019       68.31576      116.13095
H         -3.31807       68.46751      116.58973
H         -1.82254       69.71959      118.38632
H         -1.70707       71.46188      118.07532
N         -4.04362       66.11779      112.09569
C         -4.22901       65.83189      110.67438
C         -3.59428       64.50658      110.27655
O         -3.55945       64.23006      109.08557
C         -5.73136       65.86407      110.27938
C         -6.57533       64.83081      111.05089
C         -6.31260       67.26898      110.46881
H         -4.49694       65.48922      112.77105
H         -3.69963       66.59463      110.06207
H         -5.80796       65.62096      109.19584
H         -6.17745       63.80497      110.90068
H         -6.59685       65.05061      112.13859
H         -7.62329       64.84641      110.68404
H         -7.36952       67.29328      110.12801
H         -6.27209       67.57588      111.53501
H         -5.73776       68.00041      109.86146
N         -3.07864       63.63589      111.19532
C         -2.45106       62.37166      110.83005
C         -1.02915       62.35097      111.40542
O         -0.63390       63.30227      112.06623
C         -3.41460       61.24063      111.28920
C         -3.21670       59.88506      110.64224
N         -4.09142       59.42734      109.71233
O         -2.28918       59.17437      110.97850
H         -3.15067       63.84017      112.20142
H         -2.37097       62.29301      109.72397
H         -4.42604       61.57112      110.96642
H         -3.45084       61.15096      112.39586
H         -4.89828       59.99321      109.41183
H         -3.95700       58.50136      109.27825
N         -0.19599       61.30564      111.17551
C          1.18050       61.21529      111.64371
C          2.02857       60.74044      110.48508
O          1.71226       59.69687      109.92903
C          1.26499       60.18826      112.79147
C          2.69810       59.91065      113.20204
C          3.23772       58.63315      112.98707
C          3.51061       60.90683      113.77326
C          4.56195       58.35169      113.32222
C          4.83956       60.62160      114.11580
C          5.36999       59.34596      113.88727
O          6.65321       59.08687      114.21062
H         -0.54144       60.52151      110.61985
H          1.55123       62.18888      112.03578
H          0.78874       59.24556      112.44408
H          0.68534       60.54657      113.67030
H          2.63348       57.85665      112.54489
H          3.12037       61.90076      113.95229
H          4.95739       57.36106      113.13765
H          5.46042       61.39287      114.55493
H          7.05572       58.21938      114.05812
N          3.14946       61.41073      110.10193
C          4.01065       60.91740      109.03845
C          5.30302       60.43041      109.65752
O          6.06222       61.26868      110.12362
C          4.20260       62.02205      107.96960
C          5.12275       61.64465      106.79226
C          6.57544       61.60480      107.18021
O          7.22436       60.58025      107.04513
O          7.17267       62.71181      107.66487
H          3.43322       62.25849      110.61743
H          3.52333       60.08016      108.52636
H          4.57659       62.96087      108.43495
H          3.19481       62.23974      107.55201
H          5.02764       62.42484      106.00695
H          4.79653       60.67526      106.35699
N          5.65122       59.10763      109.75702
C          4.81982       57.94051      109.42580
C          4.47441       57.86634      107.94646
O          5.37649       57.87527      107.12018
C          5.58408       56.64807      109.81530
C          4.80234       55.32506      109.66441
C          3.78112       55.09607      110.75172
O          3.93396       54.16908      111.53076
O          2.69961       55.88280      110.88463
H          6.57135       58.91909      110.18656
H          3.89667       57.99036      110.04008
H          5.94448       56.71284      110.86516
H          6.48334       56.59003      109.16248
H          5.55054       54.50657      109.74890
H          4.33513       55.24064      108.66047
N          3.17310       57.74859      107.55234
C          2.75809       57.63186      106.16883
H          2.06314       58.46098      105.92044
H          3.61450       57.66561      105.46371
H          2.22667       56.66668      106.02722
H          2.43065       57.72018      108.26687
Ca         1.27195       55.50097      112.61926
O         -1.16044       56.51460      111.54417
H         -1.01949       57.33719      112.07618
H         -1.25374       56.82656      110.61075
O          0.05650       54.12615      110.02239
H         -0.30345       54.82289      109.41810
H         -0.27163       53.27378      109.64093
O          3.09905       54.85484      115.01209
H          2.70712       53.94547      115.02314
H          2.48679       55.39513      115.57216
O          1.62363       52.24182      112.25380
H          1.07830       51.45499      112.00168
H          2.55096       51.89715      112.29486

Ca 1.0



