%chk=apoCaM-CA-Ng.loop2.water3.frame370.chk
%nprocshared=20
%mem=10GB
%nosave
#b3lyp/svp scf=(tight,noincore,xqc) Test 
#IOP(5/87=12) Density=Current Pop=(MK,readradii) iop(6/33=2) iop(6/42=6)

apoCaM-CA-Ng.loop2.water3.frame370 

   -2  1 
C         42.19504       76.32694       21.17852
C         41.70726       74.91381       21.06697
O         40.55085       74.71004       20.72543
H         43.04425       76.48761       20.48264
H         41.38348       77.04372       20.92817
H         42.53051       76.52139       22.21849
N         42.54330       73.87950       21.36572
C         42.13452       72.47872       21.31747
C         42.09212       71.87564       22.71455
O         42.47029       72.53018       23.67687
C         43.01879       71.68461       20.32292
C         44.49015       71.60055       20.65338
O         45.00017       72.15118       21.77084
O         45.23747       71.01085       19.88912
H         43.50166       74.10501       21.66325
H         41.09251       72.40941       20.93744
H         42.91955       72.16088       19.32299
H         42.63362       70.64654       20.23701
N         41.57458       70.62765       22.89405
C         41.39167       70.00326       24.20082
C         40.39065       70.77410       25.04720
O         39.31324       71.10314       24.57066
C         40.89143       68.56840       24.04349
H         41.27493       70.10358       22.05803
H         42.37441       69.93598       24.71818
H         41.62852       67.97686       23.46056
H         40.78477       68.09983       25.04657
H         39.90967       68.54666       23.52601
N         40.69015       71.06273       26.34029
C         39.83168       71.83205       27.24027
C         38.49731       71.15950       27.48277
O         38.46793       69.99370       27.85393
C         40.55392       72.05813       28.58716
C         41.83024       72.83012       28.37667
O         42.54149       73.11917       29.32526
O         42.19051       73.18765       27.12596
H         41.59774       70.72847       26.70062
H         39.65372       72.84006       26.80243
H         40.78575       71.08149       29.06816
H         39.89692       72.64068       29.27024
N         37.34407       71.87979       27.36073
C         36.04631       71.29727       27.67263
C         34.85484       72.25246       27.73260
O         33.79456       71.75866       28.09203
H         37.43501       72.86634       27.10178
H         36.11475       70.84814       28.68773
H         35.82750       70.48341       26.94717
N         34.89817       73.58836       27.42157
C         33.73407       74.46481       27.58007
C         33.96835       75.76870       26.82223
O         34.95115       76.45029       27.08327
C         33.44188       74.68664       29.08668
C         32.08145       75.29188       29.34923
N         31.77545       76.55048       28.96312
O         31.24103       74.62743       29.93832
H         35.75481       74.00672       27.04355
H         32.85839       73.95167       27.12402
H         34.24221       75.29497       29.56148
H         33.44712       73.69874       29.59375
H         32.46803       77.14492       28.49360
H         30.83974       76.93913       29.15331
N         33.12262       76.13336       25.81506
C         33.37957       77.22748       24.88866
C         33.41888       78.61028       25.49310
O         33.21091       78.77954       26.68493
H         32.29417       75.54871       25.62792
H         32.58331       77.23286       24.11340
H         34.35069       77.03667       24.38528
N         33.70723       79.66254       24.67094
C         33.79788       81.04891       25.11945
C         35.23308       81.57567       25.03954
O         35.47026       82.65363       25.57024
C         32.78519       81.94037       24.34049
C         33.06554       82.05878       22.83019
O         31.47191       81.48307       24.55274
H         33.88602       79.45979       23.67702
H         33.52143       81.10239       26.19511
H         32.84118       82.97260       24.75005
H         31.34807       80.64875       24.02776
H         32.30103       82.70718       22.35196
H         34.04852       82.52792       22.65958
H         33.03824       81.07157       22.32398
N         36.23960       80.88231       24.42107
C         37.64293       81.29923       24.39006
C         38.50083       80.15374       24.90991
O         38.37210       79.04081       24.41193
C         38.09232       81.66788       22.94790
C         37.20710       82.75943       22.29722
C         39.57472       82.09767       22.92527
C         37.21661       84.12860       22.98949
H         36.01726       80.00377       23.93184
H         37.80082       82.19983       25.02356
H         37.99188       80.76056       22.31124
H         36.17059       82.38475       22.25812
H         37.53524       82.90679       21.24602
H         39.74654       82.97754       23.58087
H         40.23418       81.27965       23.28197
H         39.88691       82.35094       21.89100
H         36.87055       84.06346       24.03764
H         38.22889       84.58002       22.97128
H         36.52991       84.81378       22.44933
N         39.41235       80.35846       25.89855
C         40.25664       79.29082       26.44519
C         40.84291       79.70440       27.80758
O         41.91285       79.25144       28.18318
C         41.34777       78.94024       25.39550
C         42.12466       77.67903       25.67084
O         41.84673       76.89739       26.73210
O         43.00381       77.34018       24.89472
H         39.50628       81.32222       26.25221
H         39.60862       78.40648       26.63608
H         42.04763       79.80151       25.30946
H         40.87690       78.79144       24.40139
N         40.16622       80.59538       28.59123
C         40.62258       81.15035       29.86243
C         42.02585       81.75319       29.73601
O         42.21921       82.59262       28.86827
C         39.62588       82.27264       30.24466
C         39.94754       83.03835       31.49872
C         40.36070       84.37849       31.40041
C         39.79961       82.45368       32.76568
C         40.62276       85.12304       32.54998
C         40.05160       83.20845       33.91749
C         40.46295       84.54116       33.80889
H         39.25266       80.92817       28.25785
H         40.59475       80.34862       30.62574
H         38.59515       81.86417       30.33319
H         39.61220       82.98597       29.38959
H         40.48117       84.84846       30.43164
H         39.46846       81.42706       32.86127
H         40.94143       86.15358       32.46130
H         39.92054       82.76439       34.89526
H         40.65436       85.12598       34.69867
N         43.04975       81.41037       30.58250
C         44.39434       81.98291       30.54301
C         45.10174       81.87179       29.20162
O         45.83036       82.78102       28.83227
C         45.16153       81.14092       31.57686
C         44.09204       80.85273       32.59846
C         42.90970       80.49883       31.70538
H         44.34266       83.04415       30.87390
H         45.44418       80.15499       31.13874
H         46.07928       81.62586       31.97381
H         44.34410       80.08434       33.36029
H         43.86448       81.81114       33.12110
H         42.95861       79.45294       31.32811
H         41.99108       80.66348       32.30553
N         44.99207       80.73368       28.46691
C         45.78323       80.44355       27.26834
C         45.49537       81.35111       26.08296
O         46.23670       81.26493       25.11200
C         45.50937       78.99255       26.83879
C         45.99661       77.99515       27.90025
C         45.33993       76.67698       27.69314
O         45.44478       76.01812       26.52975
O         44.63094       76.21687       28.57549
H         44.35252       80.01036       28.82737
H         46.86055       80.55028       27.52686
H         45.99805       78.73622       25.87187
H         44.40900       78.90933       26.69556
H         45.72299       78.32408       28.92365
H         47.10175       77.90749       27.85931
N         44.44163       82.21067       26.04714
C         44.18254       83.03552       24.88583
H         43.26139       83.63458       25.04020
H         45.03669       83.72458       24.71166
H         44.04159       82.39380       23.98858
H         43.78848       82.26824       26.83847
Ca        44.04128       74.29979       26.60472
O         40.72852       74.84932       24.44938
H         39.99742       75.46582       24.70491
H         40.29466       74.18222       23.86040
O         44.28618       71.36015       25.97368
H         44.99212       71.64941       25.34285
H         44.63290       71.60569       26.86808
O         44.89603       75.03505       23.70140
H         45.20529       75.40873       22.83828
H         45.10239       74.06842       23.64442

Ca 1.0



