%chk=apoCaM-CA-Ng.loop1.water3.frame1215.chk
%nprocshared=20
%mem=10GB
%nosave
#b3lyp/svp scf=(tight,noincore,xqc) Test 
#IOP(5/87=12) Density=Current Pop=(MK,readradii) iop(6/33=2) iop(6/42=6)

apoCaM-CA-Ng.loop1.water3.frame1215 

   0  1 
C         59.68876       -0.06169       87.95625
C         58.54835       -0.21129       88.91859
O         57.41769       -0.25770       88.46159
H         60.66915       -0.13867       88.47006
H         59.62724       -0.86073       87.18805
H         59.62540        0.92797       87.45654
N         58.78217       -0.33772       90.25934
C         57.74552       -0.52435       91.27908
C         56.96406        0.75169       91.63588
O         56.88121        1.09372       92.80974
C         58.36869       -1.16056       92.55475
C         59.45215       -0.34167       93.22633
O         60.04233       -0.81924       94.33766
O         59.80650        0.74009       92.78215
H         59.76851       -0.40007       90.54979
H         57.02006       -1.27118       90.89523
H         58.80389       -2.14472       92.28232
H         57.56105       -1.34541       93.29759
N         56.31885        1.48836       90.69217
C         55.44083        2.59386       91.02129
C         54.19526        2.06419       91.71818
O         53.88917        2.60033       92.77424
C         55.15270        3.49584       89.80450
C         56.47574        4.06060       89.23086
C         56.22399        5.14291       88.17893
C         57.53147        5.59580       87.50931
N         57.27937        6.69457       86.57712
H         56.40815        1.25615       89.70771
H         55.96858        3.27662       91.72853
H         54.52538        4.34590       90.15541
H         54.59789        2.95320       89.01079
H         57.06501        3.23241       88.78275
H         57.08490        4.51667       90.04507
H         55.74315        6.01175       88.68023
H         55.54199        4.75315       87.39454
H         57.97538        4.73660       86.95685
H         58.26573        5.93191       88.27536
H         56.92589        7.52805       87.10138
H         58.17074        6.95292       86.09557
H         56.57567        6.40712       85.85882
N         53.46651        0.96937       91.32207
C         53.63058        0.12678       90.12471
C         54.22112       -1.23104       90.46819
O         54.48737       -1.49284       91.63108
C         52.26555       -0.02841       89.41157
C         51.10909       -0.28274       90.35289
O         50.81301       -1.46405       90.94988
O         50.41989        0.68128       90.63877
H         52.73540        0.67375       91.98744
H         54.33015        0.58344       89.40177
H         52.27784       -0.75190       88.57416
H         52.06935        0.96321       88.94645
N         54.47356       -2.14207       89.47604
C         55.05987       -3.45995       89.70273
C         54.02997       -4.55044       89.49279
O         52.89416       -4.23193       89.19346
H         54.22606       -1.90381       88.50355
H         55.43098       -3.55257       90.74463
H         55.92736       -3.59717       89.02037
N         54.34170       -5.86350       89.70721
C         53.34796       -6.94953       89.71295
C         53.68402       -8.05737       88.71993
O         54.75939       -8.00751       88.14028
C         53.28215       -7.48644       91.16798
C         52.60616       -6.46259       92.02158
O         51.42775       -5.94703       91.60382
O         53.15098       -6.04259       93.02712
H         55.31313       -6.09456       89.96816
H         52.35101       -6.57042       89.40235
H         54.30102       -7.73113       91.54547
H         52.71272       -8.40677       91.28827
N         52.84151       -9.11154       88.44241
C         51.48228       -9.30858       88.95063
C         50.47059       -8.37894       88.33809
O         50.74432       -7.78330       87.31376
H         53.19218       -9.84452       87.80729
H         51.42283       -9.24542       90.03861
H         51.13780      -10.33949       88.72729
N         49.25335       -8.22906       88.93185
C         48.19752       -7.32966       88.46367
C         48.70740       -5.89560       88.38921
O         49.32493       -5.43180       89.33393
C         46.95219       -7.48074       89.37616
C         45.80981       -6.54116       88.99125
O         47.29325       -7.26962       90.72152
H         49.08364       -8.77237       89.79253
H         47.87464       -7.64074       87.44514
H         46.60193       -8.53225       89.23822
H         46.65632       -7.80346       91.26638
H         44.91275       -6.78515       89.60036
H         46.09428       -5.48821       89.19544
H         45.55018       -6.64834       87.91752
N         48.49545       -5.15964       87.25402
C         49.01729       -3.82133       86.97056
C         48.48459       -2.80553       87.97662
O         48.91196       -2.81568       89.12211
C         50.57567       -3.84694       86.89191
C         51.06568       -4.95024       85.91559
C         51.15712       -2.48918       86.45951
C         52.53841       -5.32729       86.10214
H         47.94162       -5.59078       86.49886
H         48.64240       -3.53813       85.96199
H         50.92503       -4.09008       87.90978
H         50.86286       -4.66153       84.86375
H         50.49858       -5.87248       86.08735
H         50.85070       -2.25571       85.41694
H         50.79960       -1.67345       87.11548
H         52.26666       -2.50113       86.50288
H         52.70691       -5.68784       87.13577
H         52.79693       -6.16440       85.42009
H         53.21849       -4.47900       85.89533
N         47.53636       -1.89475       87.60411
C         46.98987       -0.88519       88.50777
C         45.49451       -1.10828       88.69479
O         44.70557       -0.18771       88.53966
C         47.34227        0.53507       87.97869
C         46.68111        0.88554       86.63705
O         48.72763        0.63291       87.79127
H         47.17604       -1.92745       86.64098
H         47.45414       -0.98734       89.51618
H         47.00764        1.30024       88.72004
H         49.12549        0.71785       88.68781
H         46.97759        0.16782       85.84747
H         45.57760        0.90666       86.69442
H         47.00246        1.89972       86.32499
N         45.03567       -2.33081       89.06983
C         43.62348       -2.63333       89.26957
C         43.46092       -2.77104       90.75974
O         43.30685       -3.86623       91.28090
C         43.24252       -3.87705       88.43313
C         41.72790       -4.16715       88.50408
O         43.67569       -3.67049       87.10353
H         45.72059       -3.07916       89.25708
H         42.97203       -1.79734       88.92874
H         43.77774       -4.76041       88.82918
H         42.94765       -3.86958       86.46032
H         41.49607       -5.08355       87.91923
H         41.39484       -4.33304       89.54837
H         41.15265       -3.31963       88.07272
N         43.61157       -1.64065       91.50832
C         43.82061       -1.58626       92.94591
C         45.20266       -2.09551       93.26105
O         45.70795       -2.96255       92.56418
C         42.77801       -2.31359       93.79806
C         41.34317       -1.94755       93.42678
C         40.37575       -2.72633       94.31898
C         38.92839       -2.52947       93.86841
N         38.02204       -3.32142       94.69734
H         43.68216       -0.73792       91.01264
H         43.79423       -0.50659       93.22311
H         42.96777       -2.06366       94.86710
H         42.90634       -3.41015       93.68210
H         41.16818       -2.23641       92.36809
H         41.17298       -0.85353       93.53354
H         40.49820       -2.39869       95.37554
H         40.61507       -3.81080       94.25304
H         38.83081       -2.85774       92.80901
H         38.65471       -1.45338       93.93297
H         38.27547       -4.33510       94.63758
H         38.07642       -3.00364       95.69215
H         37.04466       -3.19769       94.34917
N         45.90407       -1.54940       94.28171
C         47.28913       -1.89613       94.54449
C         48.15991       -1.52298       93.35083
O         48.92642       -2.37597       92.93499
C         47.76143       -1.29214       95.87652
C         46.93910       -1.90991       97.03009
C         47.31888       -1.35168       98.36441
O         48.45271       -1.49089       98.79273
O         46.39446       -0.71836       99.11183
H         45.44596       -0.82840       94.86041
H         47.37226       -2.99980       94.68140
H         47.65507       -0.18748       95.86242
H         48.83383       -1.54633       96.03314
H         47.08902       -3.01287       97.04795
H         45.85624       -1.72120       96.87559
N         48.08479       -0.34584       92.66312
C         47.23663        0.78510       92.96551
H         46.16745        0.50774       92.94655
H         47.51939        1.22692       93.94006
H         47.37046        1.56022       92.17814
H         48.66278       -0.26075       91.82252
Ca        51.16635       -3.70297       91.23240
O         52.90848       -3.36328       93.31518
H         53.34263       -3.70613       92.49338
H         53.57856       -2.74770       93.69496
O         47.99724       -4.46266       91.47935
H         47.54222       -5.08299       92.10032
H         47.26996       -4.05586       90.94734
O         49.70569       -4.89931       93.80106
H         48.89215       -5.21017       94.27157
H         50.45366       -5.12498       94.40717

Ca 1.0



