%chk=apoCaM-CA-Ng.loop1.water5.frame504.chk
%nprocshared=20
%mem=10GB
%nosave
#b3lyp/svp scf=(tight,noincore,xqc) Test 
#IOP(5/87=12) Density=Current Pop=(MK,readradii) iop(6/33=2) iop(6/42=6)

apoCaM-CA-Ng.loop1.water5.frame504 

   0  1 
C         43.34394       65.39317       20.83921
C         42.93030       66.64759       20.12353
O         42.19126       66.55218       19.15511
H         44.01189       65.61451       21.69854
H         42.44374       64.86775       21.22123
H         43.88501       64.72480       20.13717
N         43.37766       67.86557       20.55088
C         43.05355       69.15701       19.93945
C         41.56362       69.47638       20.10214
O         40.78916       68.57129       20.38038
C         43.54728       69.17457       18.46733
C         43.71848       70.51858       17.80550
O         43.58813       71.67184       18.48259
O         44.06684       70.55942       16.63665
H         44.00959       67.88808       21.36647
H         43.62714       69.91202       20.52275
H         42.86303       68.55476       17.85114
H         44.55577       68.70664       18.43356
N         41.10311       70.76409       20.03941
C         39.71289       71.18328       20.24137
C         39.20629       70.96891       21.66983
O         38.09362       71.39732       21.94458
C         38.77422       70.52001       19.20820
C         39.14205       70.89253       17.75988
C         38.41131       70.02298       16.72330
C         36.87834       70.10557       16.78832
N         36.27639       69.20429       15.80537
H         41.76963       71.51966       19.85700
H         39.66783       72.28483       20.08190
H         37.72918       70.84540       19.39789
H         38.80842       69.41953       19.33149
H         40.22765       70.72148       17.59515
H         38.93464       71.97236       17.58976
H         38.72151       68.96691       16.87937
H         38.74547       70.33324       15.70883
H         36.54939       71.14979       16.59165
H         36.52036       69.80570       17.79594
H         36.57502       69.46842       14.83875
H         36.56462       68.21786       16.00423
H         35.23503       69.26700       15.87168
N         39.94814       70.34407       22.63271
C         39.52041       70.16150       24.01268
C         40.63386       70.70201       24.91452
O         41.76007       70.25733       24.73635
C         39.27271       68.66438       24.25791
C         38.74309       68.42130       25.63863
O         37.58329       68.98911       26.02116
O         39.35289       67.70386       26.41391
H         40.87272       69.96605       22.40461
H         38.55379       70.67107       24.16913
H         40.20786       68.08600       24.09155
H         38.50958       68.29982       23.53453
N         40.47732       71.67375       25.86191
C         39.22123       72.23382       26.32759
C         39.21823       72.23130       27.83580
O         40.00812       72.96214       28.41817
H         41.33558       72.02727       26.31499
H         38.34757       71.67449       25.95648
H         39.12542       73.28656       25.98678
N         38.38322       71.41390       28.53775
C         38.34554       71.38059       29.99660
C         38.90641       70.06895       30.51459
O         38.35700       69.01776       30.22552
C         36.92048       71.67316       30.52884
C         35.80535       70.74246       30.10246
O         35.99431       69.80615       29.34516
O         34.56113       70.96286       30.56556
H         37.77864       70.76929       28.01102
H         38.98652       72.19059       30.40811
H         36.63480       72.69634       30.20385
H         36.96204       71.66613       31.63957
N         40.03445       70.06320       31.28158
C         40.62656       68.85168       31.81943
C         41.97794       68.63521       31.20154
O         42.96895       68.62398       31.91876
H         40.51108       70.95439       31.48993
H         40.00574       67.95650       31.60814
H         40.70614       68.95241       32.92442
N         42.08251       68.45480       29.85332
C         43.34895       68.25618       29.15979
C         43.29004       66.92839       28.42851
O         42.43421       66.78774       27.56393
C         43.58447       69.40769       28.14850
C         43.35484       70.80364       28.74857
O         44.87498       69.31449       27.59965
H         41.21919       68.47457       29.28741
H         44.18579       68.25357       29.89346
H         42.84867       69.31923       27.31910
H         45.52199       69.50362       28.33066
H         42.29873       70.91143       29.07996
H         44.02496       70.98540       29.61355
H         43.53806       71.57594       27.97166
N         44.11441       65.88812       28.75182
C         43.96330       64.56090       28.15103
C         43.33858       63.57689       29.13739
O         43.07800       62.45009       28.74515
C         45.28956       64.02460       27.53773
C         46.36610       63.71465       28.60933
C         45.80709       64.99890       26.46330
C         47.56203       62.94201       28.04313
H         44.80650       66.01684       29.50662
H         43.23329       64.60860       27.31285
H         45.03647       63.06582       27.03114
H         45.92331       63.06412       29.39333
H         46.71902       64.64971       29.09328
H         45.01820       65.18497       25.70379
H         46.09776       65.96950       26.91906
H         46.68249       64.58245       25.92639
H         48.26868       62.69749       28.86363
H         47.21799       61.98885       27.58530
H         48.11347       63.53179       27.28462
N         43.02214       63.95099       30.41403
C         42.32911       63.09078       31.36765
C         43.16998       62.88664       32.61605
O         44.26929       63.41211       32.70707
C         40.93398       63.69257       31.69420
C         40.98576       65.11720       32.25938
O         40.15277       63.70208       30.52937
H         43.24873       64.89909       30.73518
H         42.15589       62.08065       30.93721
H         40.42376       63.07223       32.46531
H         39.66053       62.84030       30.49477
H         39.95710       65.45999       32.49898
H         41.59542       65.15381       33.18610
H         41.40399       65.82626       31.51692
N         42.68818       62.10465       33.62461
C         43.41374       61.81738       34.85268
C         43.58252       60.31188       34.97218
O         44.71551       59.85056       35.01800
C         42.67717       62.45962       36.05530
C         43.42010       62.22430       37.37394
O         41.36297       61.97613       36.15842
H         41.75498       61.68540       33.51752
H         44.42649       62.27894       34.82287
H         42.65168       63.55872       35.85970
H         40.83481       62.66796       36.63633
H         42.89074       62.74495       38.19993
H         43.46539       61.14061       37.61199
H         44.45309       62.62741       37.31050
N         42.49788       59.48423       34.99629
C         42.58193       58.03435       35.05547
C         41.92317       57.43906       33.82799
O         40.77207       57.75059       33.54849
C         41.88656       57.50089       36.32766
C         41.97432       55.96093       36.38908
C         41.29603       55.37100       37.62868
C         41.27606       53.82865       37.60162
N         42.61697       53.24088       37.65102
H         41.55265       59.89150       34.94899
H         43.64197       57.69971       35.10642
H         40.81871       57.81332       36.33551
H         42.38586       57.93382       37.22197
H         43.04494       55.66816       36.36742
H         41.46386       55.53196       35.50112
H         40.23951       55.71697       37.64767
H         41.80050       55.73154       38.55080
H         40.74962       53.47631       36.68579
H         40.69780       53.47223       38.48196
H         42.52782       52.19935       37.67955
H         43.16908       53.48945       36.80017
H         43.11808       53.55983       38.51145
N         42.56942       56.47719       33.11647
C         41.91477       55.70401       32.07266
C         41.83560       56.48419       30.76557
O         40.72124       56.69086       30.30656
C         42.54647       54.29743       31.95296
C         42.35606       53.50697       33.26616
C         42.94001       52.12862       33.18502
O         43.90571       51.75594       34.04702
O         42.52722       51.33107       32.35859
H         43.50624       56.18308       33.43444
H         40.86632       55.49262       32.39069
H         43.62654       54.35387       31.72662
H         42.03896       53.74487       31.13217
H         41.27184       53.41696       33.49657
H         42.84470       54.04261       34.10691
N         42.91162       56.98320       30.08837
C         44.29122       56.86739       30.50574
H         44.94255       57.40004       29.78031
H         44.43790       57.33577       31.49950
H         44.61465       55.81185       30.51259
H         42.73230       57.50696       29.21692
Ca        36.99402       67.26612       28.25451
O         39.26619       65.60213       28.77645
H         39.21266       66.07152       29.64691
H         40.10809       65.92601       28.37282
O         36.49021       64.28729       28.26603
H         35.52386       64.46567       28.14564
H         36.82825       64.12256       27.35001
O         36.57079       66.84879       31.16837
H         37.15576       66.37863       31.81367
H         36.24550       67.64590       31.65757
O         34.17981       67.05776       29.04679
H         33.81719       66.52368       28.29624
H         33.71486       67.92916       28.98108
O         35.49035       66.51934       25.79369
H         34.70949       67.12473       25.73028
H         36.03024       66.72256       24.98913

Ca 1.0



