%chk=apoCaM-CA-Ng.loop2.water2.frame989.chk
%nprocshared=20
%mem=10GB
%nosave
#b3lyp/svp scf=(tight,noincore,xqc) Test 
#IOP(5/87=12) Density=Current Pop=(MK,readradii) iop(6/33=2) iop(6/42=6)

apoCaM-CA-Ng.loop2.water2.frame989 

   -2  1 
C         52.18077       96.93218       48.86399
C         50.92937       96.28259       49.36976
O         50.11569       95.87964       48.55008
H         52.74395       96.20363       48.24201
H         51.91534       97.81048       48.23961
H         52.83174       97.26464       49.69818
N         50.71836       96.11238       50.70928
C         49.54104       95.43634       51.24001
C         49.96484       94.10157       51.84249
O         49.54695       93.74588       52.93554
C         48.81390       96.38660       52.21768
C         47.50448       95.84443       52.71691
O         47.30888       95.66310       54.03708
O         46.60307       95.59391       51.93294
H         51.43774       96.43196       51.37602
H         48.84409       95.19141       50.40898
H         48.60284       97.34655       51.69741
H         49.48344       96.60520       53.07880
N         50.82750       93.31118       51.14108
C         51.24980       91.97260       51.52741
C         52.72229       91.99903       51.95302
O         53.50800       92.57796       51.21540
C         51.04652       91.06062       50.31107
H         51.22007       93.67937       50.26129
H         50.59484       91.58634       52.32395
H         49.97775       91.07504       50.00649
H         51.66041       91.40921       49.45230
H         51.32371       90.01459       50.53473
N         53.21861       91.41841       53.09731
C         52.48445       90.48924       53.95723
C         52.96080       90.50959       55.40665
O         53.93997       91.16923       55.72320
C         52.58369       89.06847       53.35381
C         53.98109       88.48758       53.40528
O         54.14708       87.40264       53.93255
O         55.04930       89.14397       52.89494
H         54.23688       91.49377       53.24521
H         51.42679       90.79690       54.01454
H         52.25233       89.09937       52.30135
H         51.88954       88.38600       53.89243
N         52.25062       89.82954       56.35408
C         52.56987       89.82306       57.77429
C         52.41041       88.42888       58.35350
O         51.46997       88.23608       59.11064
H         51.38014       89.35691       56.06532
H         51.81362       90.46929       58.27129
H         53.56376       90.26125       57.99985
N         53.22507       87.37664       58.05493
C         54.43121       87.45925       57.24909
C         55.49474       88.21813       58.02797
O         55.81499       87.81140       59.13674
C         54.91337       86.02266       56.89139
C         56.01401       85.97565       55.86190
N         56.52118       84.79812       55.43376
O         56.43570       87.00555       55.38128
H         52.96706       86.45491       58.44327
H         54.18432       87.96905       56.29936
H         54.05887       85.46773       56.44772
H         55.24103       85.49178       57.81052
H         56.17465       83.90533       55.80941
H         57.26293       84.78386       54.71553
N         56.09336       89.32201       57.50173
C         57.10168       90.10492       58.20158
C         58.47951       89.93014       57.60136
O         59.39550       90.59616       58.06295
H         55.84683       89.61007       56.54518
H         57.18057       89.80978       59.27102
H         56.79941       91.17347       58.17301
N         58.72153       88.99596       56.63423
C         60.04197       88.67954       56.12202
C         60.04526       88.78129       54.57085
O         59.31141       87.73964       53.97261
C         60.48635       87.27707       56.65099
C         60.42530       87.18892       58.18577
O         59.73506       86.23168       56.08428
H         57.95309       88.42146       56.29784
H         60.77446       89.42118       56.51116
H         61.54506       87.10660       56.37044
H         58.81438       86.28268       56.44634
H         59.38020       87.30622       58.54740
H         60.79059       86.19513       58.52049
H         61.05348       87.97789       58.64858
N         61.42272       88.83620       54.05068
C         61.53747       88.73405       52.58434
C         61.79717       87.28845       52.18593
O         62.79434       86.72093       52.61414
C         62.67882       89.66211       52.08309
C         62.81439       89.56913       50.53704
C         62.39628       91.10944       52.53370
C         63.94014       90.42498       49.95645
H         62.08522       88.18883       54.53457
H         60.59909       89.09873       52.10739
H         63.63721       89.33602       52.54691
H         61.85810       89.86250       50.05397
H         63.03646       88.51837       50.25190
H         61.45050       91.47985       52.08304
H         62.30922       91.16778       53.63903
H         63.22531       91.78837       52.25448
H         63.74814       91.50535       50.11282
H         64.91242       90.14755       50.41549
H         64.00066       90.25430       48.86078
N         60.94512       86.64451       51.34338
C         61.14622       85.27412       50.88864
C         61.38136       85.19923       49.37918
O         61.62252       84.10432       48.89397
C         59.99237       84.36335       51.37674
C         58.61267       84.80110       50.96208
O         57.92149       84.07380       50.26786
O         58.09917       85.95813       51.42077
H         60.12731       87.16340       50.99293
H         62.07074       84.85002       51.33940
H         60.00800       84.33076       52.48836
H         60.17884       83.32811       51.01481
N         61.36708       86.30997       48.57561
C         61.68521       86.25588       47.15040
C         61.37675       87.59286       46.46893
O         61.97842       88.59083       46.83801
C         63.19677       85.96830       46.91886
C         63.53714       86.10047       45.44327
C         64.23067       87.23774       44.98463
C         63.10311       85.14436       44.51028
C         64.46365       87.42362       43.61957
C         63.35202       85.32807       43.14444
C         64.02418       86.47019       42.69956
H         61.12371       87.22479       48.97600
H         61.09088       85.44599       46.68560
H         63.51371       84.97626       47.30454
H         63.76618       86.73436       47.49131
H         64.55852       88.00136       45.67911
H         62.56316       84.26569       44.83855
H         64.97366       88.31439       43.27459
H         63.01163       84.59244       42.42752
H         64.20006       86.62036       41.64185
N         60.53488       87.66885       45.38996
C         60.44099       88.83794       44.52397
C         59.65781       89.99556       45.11316
O         59.49855       90.98716       44.41286
C         59.78327       88.27043       43.25861
C         58.85931       87.21688       43.82636
C         59.75435       86.56399       44.87068
H         61.45023       89.21177       44.24052
H         59.31564       89.01833       42.58374
H         60.56245       87.72285       42.67810
H         58.03081       87.74527       44.35078
H         58.42500       86.50670       43.09140
H         59.11685       86.07948       45.64227
H         60.44208       85.82202       44.41154
N         59.14368       89.96893       46.37414
C         58.36509       91.07617       46.92263
C         59.15436       92.37521       47.07699
O         58.53937       93.38150       47.40347
C         57.75068       90.67061       48.27577
C         58.80698       90.48749       49.38072
C         58.16396       89.96604       50.62063
O         57.61478       88.87630       50.60617
O         58.19444       90.69067       51.75383
H         59.25746       89.11651       46.93943
H         57.52414       91.26018       46.21721
H         57.18996       89.72146       48.12195
H         57.02137       91.44354       48.60525
H         59.29336       91.46332       49.59922
H         59.59306       89.76723       49.07566
N         60.50527       92.43991       46.89620
C         61.23835       93.67595       47.06809
H         62.32006       93.50587       46.88172
H         60.86907       94.44025       46.35160
H         61.11260       94.05010       48.10675
H         61.04462       91.59894       46.64967
Ca        57.19530       88.43053       53.31368
O         55.09746       86.03023       51.42879
H         55.50145       85.12677       51.44103
H         54.12177       85.86350       51.43781
O         57.00989       90.95771       54.68262
H         57.86566       91.30391       54.32724
H         56.42421       91.75174       54.74955

Ca 1.0



