%chk=apoCaM-CA-Ng.loop3.water6.frame1140.chk
%nprocshared=20
%mem=10GB
%nosave
#b3lyp/svp scf=(tight,noincore,xqc) Test 
#IOP(5/87=12) Density=Current Pop=(MK,readradii) iop(6/33=2) iop(6/42=6)

apoCaM-CA-Ng.loop3.water6.frame1140 

   0  1 
C         54.67824       87.50809       62.63512
C         53.35072       87.32186       61.96366
O         53.32521       86.79973       60.86373
H         55.32027       88.16032       62.00588
H         54.56666       87.97780       63.63465
H         55.17209       86.52170       62.75776
N         52.20239       87.74154       62.56085
C         50.87906       87.61775       61.95389
C         50.28781       88.99105       61.65804
O         49.07919       89.09226       61.49796
C         49.96432       86.75133       62.86023
C         49.65929       87.30010       64.23523
O         48.88736       86.57903       65.07029
O         50.08463       88.38193       64.60529
H         52.27357       88.19546       63.48329
H         50.92952       87.08269       60.98034
H         50.44578       85.75734       62.98622
H         48.99393       86.58904       62.34234
N         51.09388       90.09172       61.53377
C         50.61457       91.45970       61.34984
C         49.78410       91.57907       60.08400
O         48.63489       91.99617       60.15107
C         49.83728       91.90982       62.60928
C         50.68570       91.75814       63.88171
C         49.84512       92.00881       65.13522
C         50.66753       91.74476       66.40241
N         49.83973       91.88611       67.59861
H         52.11565       89.97613       61.59760
H         51.49818       92.12713       61.23845
H         48.92685       91.28141       62.71238
H         49.51333       92.96853       62.50385
H         51.55683       92.44806       63.84289
H         51.06845       90.71863       63.94692
H         48.98007       91.30901       65.12695
H         49.46195       93.05233       65.13625
H         51.52160       92.45604       66.44928
H         51.07511       90.70883       66.37062
H         49.05560       91.19356       67.57260
H         50.42547       91.69728       68.44365
H         49.45307       92.85562       67.65774
N         50.30058       91.17137       58.89014
C         49.50913       91.12358       57.66358
C         49.17302       89.68333       57.34192
O         49.67289       88.78183       58.00292
C         50.18438       91.86584       56.48818
C         51.50616       91.28086       56.06955
O         51.63664       90.79529       54.95708
O         52.56140       91.31908       56.90260
H         51.25262       90.78356       58.88528
H         48.52981       91.62081       57.83386
H         50.33713       92.93246       56.75710
H         49.49220       91.83799       55.61821
N         48.23867       89.39600       56.39465
C         47.74462       88.04952       56.18295
C         47.10361       87.55227       57.47165
O         46.19939       88.23062       57.93825
H         47.80705       90.16216       55.85624
H         48.56351       87.42419       55.79158
H         46.96117       88.07005       55.39476
N         47.46568       86.41279       58.13574
C         48.41573       85.41758       57.65821
C         49.12866       84.76810       58.84167
O         48.44594       84.18053       59.66980
C         47.60965       84.37736       56.85000
C         48.41435       83.28430       56.19252
N         47.77619       82.34873       55.45250
O         49.62903       83.23475       56.31139
H         46.90599       86.16628       58.96839
H         49.15696       85.87063       56.98736
H         47.06787       84.91581       56.04165
H         46.85143       83.90745       57.51477
H         46.75157       82.37928       55.34040
H         48.30334       81.59461       54.98893
N         50.48467       84.78417       59.01222
C         51.41942       85.46823       58.12316
C         52.87258       85.19703       58.46788
O         53.14439       84.42106       59.37475
H         50.84979       84.27507       59.83191
H         51.21907       86.55664       58.16785
H         51.27947       85.10995       57.08293
N         53.87323       85.77453       57.73343
C         55.28145       85.43375       57.92203
C         56.15822       86.65289       58.20660
O         55.71664       87.78061       58.04034
C         55.75976       84.71714       56.64229
C         56.97237       83.85221       56.85045
C         58.19035       84.13229       56.21345
C         56.86582       82.71307       57.66609
C         59.28691       83.28144       56.39372
C         57.95622       81.86093       57.83621
C         59.17195       82.14098       57.19859
O         60.22930       81.31806       57.34558
H         53.61949       86.41158       56.96754
H         55.36490       84.74509       58.78875
H         55.91204       85.47539       55.84162
H         54.96400       84.02730       56.28346
H         58.29067       85.00294       55.57801
H         55.92831       82.47355       58.15384
H         60.22365       83.50236       55.89877
H         57.85001       80.97970       58.45642
H         60.17931       80.50983       57.87636
N         57.42661       86.47167       58.67726
C         58.35645       87.56083       59.00381
C         58.97592       88.16968       57.74518
O         59.01120       87.49640       56.72269
C         59.42937       87.05313       60.02607
C         60.34081       85.92769       59.45096
C         60.27751       88.21028       60.58737
C         61.13453       85.19525       60.53609
H         57.68378       85.50372       58.90480
H         57.76367       88.34499       59.52747
H         58.84597       86.63111       60.87556
H         61.02881       86.34241       58.68334
H         59.74340       85.13953       58.95669
H         59.62183       89.00800       60.99532
H         60.92460       87.86734       61.41896
H         60.93218       88.64023       59.80142
H         61.84194       85.86642       61.05989
H         60.43544       84.74838       61.27702
H         61.71937       84.37171       60.07480
N         59.46157       89.45134       57.73858
C         60.06817       90.07135       56.55236
C         60.29973       91.57765       56.70536
O         60.07874       92.12848       57.77461
C         61.41131       89.38526       56.21562
O         62.31823       89.57406       57.26898
H         59.35360       90.00690       58.60083
H         59.36404       89.95139       55.70186
H         61.82344       89.81862       55.27624
H         61.27221       88.29846       56.04550
H         63.22596       89.42889       56.89388
N         60.74406       92.30552       55.63619
C         61.05639       93.73385       55.63686
C         62.24673       94.03335       56.53117
O         62.15284       94.88424       57.40573
C         59.81821       94.58137       55.98162
H         60.88112       91.81441       54.73911
H         61.36608       94.01321       54.60568
H         60.06137       95.66271       55.90020
H         58.99390       94.35518       55.27428
H         59.46334       94.39023       57.01536
N         63.41343       93.33477       56.36653
C         64.61979       93.52890       57.17326
C         64.40373       93.25691       58.66010
O         65.33099       93.46664       59.43091
C         65.19426       94.93395       56.94520
H         63.45179       92.61390       55.63026
H         65.39640       92.81308       56.82171
H         66.16189       95.04175       57.48180
H         65.38855       95.08672       55.86227
H         64.50749       95.72579       57.30503
N         63.22025       92.77445       59.13874
C         62.94851       92.53778       60.54755
C         63.92251       91.50153       61.06907
O         64.59881       91.75343       62.05635
C         61.47445       92.08521       60.70901
C         60.93241       92.04961       62.14667
C         60.76355       93.42824       62.74094
O         59.64592       93.83978       63.01158
O         61.82854       94.21171       62.99290
H         62.46888       92.54880       58.48074
H         63.07944       93.49784       61.08376
H         61.36220       91.07989       60.24909
H         60.81500       92.78411       60.14854
H         61.56702       91.41667       62.80002
H         59.92272       91.58369       62.09502
N         64.10331       90.33706       60.38522
C         65.09795       89.35912       60.76317
H         66.10465       89.83112       60.77517
H         64.86536       88.94350       61.76425
H         65.11303       88.53287       60.01980
H         63.55291       90.16045       59.53212
Ca        54.51184       90.35419       56.30831
O         55.51934       90.55649       59.19691
H         54.95405       91.22005       59.66631
H         56.37868       91.02332       59.04154
O         56.14638       92.75890       55.83981
H         56.40011       92.62557       56.78771
H         56.99128       92.64268       55.33746
O         52.81261       88.92206       58.23183
H         52.31816       88.55602       57.45629
H         53.05306       88.13571       58.77520
O         54.35080       90.12631       53.32104
H         53.92373       89.40725       52.79135
H         55.16110       90.36705       52.80655
O         56.92339       89.14696       55.21904
H         57.11949       89.11929       54.24964
H         56.80207       88.19891       55.47544
O         53.54818       87.69001       54.79835
H         52.68118       87.21427       54.84662
H         54.20504       86.99077       54.55312

Ca 1.0



