%chk=apoCaM-CA-Ng.loop1.water3.frame1444.chk
%nprocshared=20
%mem=10GB
%nosave
#b3lyp/svp scf=(tight,noincore,xqc) Test 
#IOP(5/87=12) Density=Current Pop=(MK,readradii) iop(6/33=2) iop(6/42=6)

apoCaM-CA-Ng.loop1.water3.frame1444 

   0  1 
C         43.02130       99.83527      114.88725
C         44.06122      100.85355      115.24615
O         44.61599      101.45108      114.33787
H         42.20752      100.33203      114.31603
H         43.47516       99.04612      114.25200
H         42.58336       99.36453      115.79079
N         44.35431      101.13096      116.55109
C         45.32093      102.15158      116.95111
C         46.40075      101.60095      117.87576
O         46.85047      102.31715      118.76135
C         44.57753      103.36034      117.56218
C         43.83298      103.06864      118.84453
O         43.86403      101.85059      119.42128
O         43.19751      103.96159      119.37981
H         43.83921      100.62514      117.28495
H         45.84712      102.54081      116.06013
H         43.84930      103.73273      116.80884
H         45.30629      104.17679      117.75864
N         46.87958      100.33515      117.72501
C         47.94406       99.79611      118.56852
C         49.24531      100.56283      118.34798
O         49.78540      101.04443      119.33356
C         48.15066       98.26859      118.40249
C         47.04959       97.42197      119.08086
C         45.67154       97.45708      118.40104
C         44.58939       96.71225      119.20317
N         44.91304       95.30533      119.44074
H         46.47485       99.74241      116.98536
H         47.66352       99.92965      119.63857
H         49.07977       98.01495      118.96123
H         48.31093       97.95529      117.35134
H         46.95110       97.75229      120.13836
H         47.40449       96.36963      119.08400
H         45.75913       97.02812      117.37875
H         45.30179       98.49516      118.32604
H         43.63471       96.77727      118.63501
H         44.43856       97.22320      120.18039
H         45.09977       94.81563      118.53657
H         45.73791       95.22156      120.07678
H         44.09952       94.85083      119.91501
N         49.81014      100.79525      117.12571
C         49.25066      100.38563      115.84373
C         48.63637      101.58567      115.13399
O         48.72530      102.69869      115.63641
C         50.31664       99.69672      114.98175
C         51.45363      100.61591      114.66287
O         51.19324      101.82993      114.14137
O         52.60193      100.24812      114.82585
H         50.65602      101.38783      117.10511
H         48.44065       99.65695      115.97360
H         49.85258       99.39241      114.02054
H         50.69265       98.77292      115.47523
N         47.94372      101.41524      113.97392
C         47.23678      102.50196      113.31859
C         48.10815      103.43047      112.51737
O         49.29540      103.19744      112.35793
H         47.81351      100.46103      113.60533
H         46.66509      103.07948      114.06985
H         46.51538      102.07248      112.59151
N         47.52286      104.52650      111.95753
C         48.17496      105.42572      111.00864
C         47.20771      105.71726      109.84269
O         46.02938      105.41996      109.97564
C         48.56974      106.72415      111.74571
C         49.59884      106.45730      112.80800
O         49.33228      106.74854      114.09459
O         50.68727      105.99241      112.50595
H         46.54552      104.72649      112.22019
H         49.08939      104.93874      110.61211
H         47.66597      107.18191      112.20243
H         49.00812      107.47157      111.06581
N         47.58111      106.30250      108.66212
C         48.94250      106.61674      108.27805
C         49.77149      105.37346      108.07512
O         49.23747      104.27368      108.04926
H         46.84273      106.51506      107.97244
H         49.40790      107.27719      109.02584
H         48.94891      107.17557      107.31722
N         51.11799      105.49474      107.95618
C         52.04121      104.37509      107.79130
C         51.82466      103.30484      108.85378
O         51.71551      103.62677      110.02785
C         53.50018      104.90085      107.81039
C         54.53450      103.78192      107.64227
O         53.76142      105.58689      109.01003
H         51.50674      106.44861      108.02029
H         51.86958      103.91274      106.79409
H         53.62774      105.58917      106.93997
H         53.72443      106.56030      108.81786
H         54.48358      103.05920      108.48379
H         54.36231      103.23474      106.69226
H         55.55620      104.21633      107.62654
N         51.80096      101.98866      108.48212
C         51.63223      100.86060      109.39044
C         52.75539      100.93312      110.47406
O         52.16822      101.02880      111.72960
C         50.16322      100.79509      109.95463
C         49.11629      100.90969      108.81512
C         49.91480       99.48490      110.74834
C         47.68018      101.09244      109.32022
H         51.94687      101.75905      107.48734
H         51.76450       99.93452      108.78595
H         50.02255      101.66663      110.62018
H         49.17461      100.02182      108.14961
H         49.33504      101.80249      108.20135
H         49.99682       98.60643      110.07421
H         50.62288       99.32426      111.58029
H         48.91089       99.48231      111.21675
H         46.99976      101.22701      108.45368
H         47.32182      100.21368      109.89106
H         47.61174      101.99832      109.96015
N         53.63061       99.75448      110.45117
C         54.60012       99.69007      111.57203
C         56.02581      100.13120      111.24790
O         56.83457      100.07303      112.16509
C         54.58661       98.25735      112.15412
C         55.14677       97.21124      111.18844
O         53.26872       97.89861      112.48710
H         54.00576       99.50043      109.51098
H         54.27501      100.34812      112.40734
H         55.23058       98.22568      113.06687
H         53.13131       98.12592      113.44244
H         55.10595       96.21037      111.66799
H         54.55440       97.18082      110.25078
H         56.20704       97.43296      110.94396
N         56.44341      100.54719      110.01184
C         57.85075      100.85287      109.75607
C         58.24517      102.06422      110.59338
O         57.76409      103.14976      110.30470
C         58.10168      101.06939      108.23802
C         59.59401      101.14140      107.90228
O         57.54612       99.99404      107.52105
H         55.77816      100.60486      109.23066
H         58.43546       99.95559      110.06188
H         57.60111      102.02061      107.93411
H         57.22384      100.35424      106.65266
H         59.72201      101.29549      106.80859
H         60.08954      101.97469      108.43980
H         60.08988      100.18363      108.17397
N         59.04124      101.92167      111.70010
C         59.34509      102.98171      112.66853
C         58.09264      103.50635      113.35018
O         57.20861      104.01528      112.68347
C         60.15945      104.13272      112.05361
C         61.57387      103.65619      111.71237
C         62.43704      104.79604      111.16349
C         63.91538      104.39368      111.02658
N         64.10862      103.24576      110.13946
H         59.41634      100.98421      111.90943
H         59.97717      102.54141      113.47174
H         60.25891      104.93682      112.81768
H         59.64934      104.56576      111.16773
H         61.51731      102.83027      110.97254
H         62.04502      103.27668      112.64672
H         62.39797      105.65818      111.86590
H         62.03149      105.12687      110.18288
H         64.32959      104.15453      112.03205
H         64.47666      105.26636      110.62648
H         63.69131      102.38382      110.55815
H         63.68298      103.43422      109.20359
H         65.13384      103.07852      110.02331
N         57.97818      103.46461      114.70885
C         56.78981      103.93750      115.40941
C         55.61139      103.01783      115.14898
O         54.61225      103.52054      114.66360
C         57.01080      104.10588      116.92784
C         58.08895      105.15381      117.23056
C         58.26243      105.31660      118.71168
O         59.34073      105.08089      119.23242
O         57.22985      105.72596      119.47362
H         58.77541      103.11542      115.26015
H         56.53904      104.95848      115.03600
H         57.28340      103.15131      117.41547
H         56.05294      104.45231      117.37897
H         57.79689      106.13330      116.79306
H         59.05503      104.84293      116.77940
N         55.58548      101.68221      115.43739
C         56.65772      100.88179      115.99108
H         57.59371      101.43326      116.15071
H         56.32909      100.45606      116.96260
H         56.88150      100.04704      115.29505
H         54.71854      101.17239      115.23894
Ca        52.62431      102.91934      112.84371
O         54.88761      103.50538      111.16881
H         54.10017      103.95103      110.77913
H         54.89234      103.84088      112.09713
O         51.22380      104.74216      115.61863
H         50.65142      105.40892      116.07465
H         50.64530      104.36319      114.91077
O         53.53183      106.22119      114.04545
H         53.83479      106.03016      114.96851
H         52.73554      106.79688      114.16405

Ca 1.0



