%chk=apoCaM-CA-Ng.loop4.water7.frame577.chk
%nprocshared=20
%mem=10GB
%nosave
#b3lyp/svp scf=(tight,noincore,xqc) Test 
#IOP(5/87=12) Density=Current Pop=(MK,readradii) iop(6/33=2) iop(6/42=6)

apoCaM-CA-Ng.loop4.water7.frame577 

   -3  1 
C         36.15243        5.20487       80.88124
C         34.93853        4.34374       80.70573
O         34.94120        3.49732       79.82694
H         36.93028        4.94297       80.13063
H         35.87706        6.27151       80.75199
H         36.57298        5.05520       81.89666
N         33.85847        4.50009       81.52766
C         32.61939        3.72443       81.43450
C         32.80329        2.23581       81.72306
O         31.82877        1.50576       81.59603
C         31.92485        3.94630       80.07011
C         31.59627        5.39517       79.85345
O         30.78589        6.04162       80.71343
O         32.04908        5.98979       78.89089
H         33.90632        5.22798       82.25673
H         31.91549        4.09437       82.21311
H         30.96761        3.38264       80.04108
H         32.55494        3.57146       79.23880
N         33.99102        1.70603       82.14386
C         34.16487        0.27468       82.39071
C         33.23417       -0.22323       83.49843
O         32.89945        0.56091       84.37561
C         35.63998       -0.08994       82.76086
C         36.08871        0.58817       84.08930
C         36.58781        0.23425       81.59077
C         37.45997        0.13531       84.58553
H         34.79505        2.32834       82.27827
H         33.90323       -0.22937       81.43597
H         35.68287       -1.19057       82.91317
H         35.37465        0.32350       84.89614
H         36.09550        1.69327       83.98813
H         36.63431        1.32407       81.38940
H         37.61457       -0.12675       81.80053
H         36.24457       -0.28359       80.66990
H         38.26344        0.42833       83.88173
H         37.67030        0.62226       85.56190
H         37.46964       -0.96559       84.73184
N         32.77866       -1.51014       83.56627
C         32.94019       -2.49134       82.50113
C         31.78007       -2.39524       81.53348
O         31.95744       -2.76847       80.38380
C         33.00351       -3.92731       83.05471
C         34.16084       -4.12775       83.98913
O         35.30574       -3.97189       83.59543
O         33.93949       -4.50562       85.26245
H         32.14270       -1.74982       84.34359
H         33.88465       -2.32352       81.94382
H         33.10941       -4.64653       82.21141
H         32.05445       -4.16062       83.58626
N         30.56143       -1.90596       81.91622
C         29.42252       -1.87878       81.02247
C         28.92049       -3.28044       80.78968
O         28.44304       -3.89861       81.73108
H         30.41761       -1.54569       82.86952
H         29.70980       -1.36430       80.08020
H         28.59022       -1.30262       81.48199
N         29.02436       -3.85705       79.56324
C         28.55410       -5.20478       79.26372
C         29.71327       -6.17340       79.06943
O         29.46493       -7.30863       78.68868
C         27.56871       -5.15317       78.07348
C         28.14130       -4.56010       76.81392
O         29.15077       -5.16771       76.16883
O         27.66706       -3.53442       76.35191
H         29.49205       -3.32846       78.81073
H         27.97530       -5.62643       80.11498
H         26.69875       -4.53544       78.38858
H         27.18925       -6.17338       77.84932
N         30.99323       -5.83931       79.41640
C         32.10393       -6.77071       79.33683
C         32.52311       -7.07899       77.91959
O         33.35160       -7.96121       77.75271
H         31.18807       -4.92248       79.82589
H         31.81897       -7.70543       79.86727
H         32.99132       -6.34656       79.85660
N         32.03260       -6.38002       76.85074
C         32.37505       -6.65927       75.45911
C         33.84895       -6.40167       75.14646
O         34.27263       -6.72132       74.04467
C         31.90591       -8.08098       75.06094
C         30.38687       -8.23622       75.28350
C         29.83449       -9.57509       74.86660
N         28.51276       -9.82580       75.01660
O         30.56368      -10.43523       74.39474
H         31.37740       -5.60726       77.01537
H         31.80871       -5.95675       74.80719
H         32.45041       -8.85767       75.63736
H         32.12087       -8.24037       73.98191
H         29.85343       -7.45118       74.70533
H         30.15750       -8.10068       76.35930
H         27.88460       -9.11098       75.41404
H         28.11409      -10.73385       74.73617
N         34.66669       -5.75316       76.02973
C         36.06820       -5.43196       75.76796
C         36.29594       -3.92527       75.71075
O         37.44742       -3.52812       75.58825
C         36.98618       -6.05506       76.86531
C         36.69980       -5.50762       78.27870
C         36.90111       -7.58484       76.86471
H         34.27831       -5.42546       76.92321
H         36.39388       -5.84066       74.78596
H         38.03921       -5.79304       76.61639
H         35.68329       -5.78164       78.62792
H         37.43209       -5.92396       79.00217
H         36.79984       -4.40166       78.30259
H         35.87958       -7.92670       77.12449
H         37.17076       -7.98183       75.86336
H         37.61426       -8.00447       77.60654
N         35.27137       -3.02456       75.80226
C         35.49040       -1.58699       75.91900
C         35.02708       -0.86093       74.65895
O         34.33819       -1.45051       73.83702
C         34.81815       -1.13799       77.23381
C         34.99330        0.30886       77.59021
N         33.91079        1.08381       77.82698
O         36.11549        0.77926       77.70221
H         34.29532       -3.35432       75.83014
H         36.58070       -1.38296       76.00015
H         35.26241       -1.73377       78.06178
H         33.73495       -1.38597       77.18795
H         32.95592        0.70255       77.75732
H         34.02390        2.07387       78.07261
N         35.53712        0.37335       74.36759
C         35.36834        1.02505       73.06143
C         36.38316        2.15250       72.85663
O         37.17091        2.42200       73.75428
C         33.92464        1.54714       72.83901
C         33.63108        2.83042       73.58768
C         33.57475        2.85370       74.98506
C         33.42563        4.02733       72.87690
C         33.31943        4.04874       75.66771
C         33.17631        5.22133       73.55566
C         33.12021        5.23753       74.95028
O         32.87391        6.39989       75.58387
H         36.18044        0.78285       75.05933
H         35.58703        0.26256       72.28100
H         33.16943        0.76947       73.07677
H         33.81848        1.75049       71.75225
H         33.72560        1.94240       75.53276
H         33.46961        4.04258       71.79539
H         33.27720        4.05121       76.74932
H         33.02818        6.13662       72.99652
H         32.82520        6.46184       76.54586
N         36.40140        2.87846       71.69810
C         37.30768        4.00128       71.49433
C         36.49033        5.28300       71.38888
O         35.80487        5.44870       70.38916
C         38.16293        3.79882       70.22860
C         39.03596        2.53971       70.31267
C         39.84754        2.36831       69.06071
O         39.29304        2.22235       67.98256
O         41.19259        2.36321       69.12283
H         35.72783        2.65847       70.94960
H         38.00744        4.06984       72.34157
H         38.82394        4.68414       70.09323
H         37.49398        3.72111       69.34250
H         38.39943        1.63882       70.44595
H         39.71781        2.62468       71.18665
N         36.43562        6.22622       72.37989
C         37.07371        6.08749       73.68812
C         38.59205        6.13204       73.62634
O         39.15536        6.42237       72.57963
C         36.56143        7.15304       74.68390
C         36.91527        8.60757       74.31121
C         36.52242        9.56282       75.40544
O         36.71459       10.75958       75.26612
O         35.98580        9.10075       76.55228
H         35.81295        7.03283       72.21983
H         36.76359        5.10180       74.09963
H         36.99817        6.92719       75.67986
H         35.45787        7.06354       74.78020
H         36.39518        8.89653       73.37418
H         38.01006        8.70961       74.15676
N         39.31317        5.83610       74.74564
C         40.75876        5.85305       74.80451
H         41.21862        6.15085       73.83994
H         41.08176        6.57088       75.58758
H         41.12446        4.84048       75.07576
H         38.81610        5.57101       75.60917
Ca        35.41727       10.41085       78.29187
O         33.27744        8.95126       80.53354
H         32.85921        8.05620       80.48486
H         32.81996        9.39585       81.29064
O         35.23560        6.90970       78.25043
H         35.14748        6.35642       77.43465
H         34.36174        7.36565       78.34077
O         33.23578        9.34019       75.90839
H         32.36622        9.45205       76.36719
H         33.44056       10.23377       75.53446
O         38.07590       10.42121       79.90958
H         38.44630       11.07041       79.26000
H         38.04554       10.91666       80.76634
O         32.76253       11.78295       78.70201
H         32.82108       12.07247       77.75692
H         31.91739       11.27006       78.75325
O         35.94941       13.28778       77.65734
H         36.60261       12.68872       77.21587
H         35.13055       13.21005       77.10602
O         34.98190       11.43254       81.07991
H         34.88785       11.08328       82.00139
H         35.38456       12.32991       81.19070

Ca 1.0



