%chk=apoCaM-CA-Ng.loop3.water5.frame5.chk
%nprocshared=20
%mem=10GB
%nosave
#b3lyp/svp scf=(tight,noincore,xqc) Test 
#IOP(5/87=12) Density=Current Pop=(MK,readradii) iop(6/33=2) iop(6/42=6)

apoCaM-CA-Ng.loop3.water5.frame5 

   0  1 
C         59.35858       54.15176      104.24535
C         60.68369       54.25931      104.93587
O         61.11155       53.28287      105.52962
H         58.65458       54.89179      104.67965
H         59.48084       54.34462      103.16029
H         58.92850       53.13496      104.38228
N         61.38759       55.43187      104.90523
C         62.67011       55.64848      105.58070
C         62.54800       55.59402      107.10420
O         63.57030       55.59038      107.77673
C         63.74873       54.66916      105.06058
C         63.93288       54.79453      103.57318
O         64.29915       55.97320      103.03347
O         63.76206       53.82726      102.84878
H         60.99236       56.22187      104.37306
H         63.03161       56.67346      105.34167
H         63.49827       53.62048      105.32296
H         64.71899       54.90440      105.54651
N         61.33096       55.59497      107.72540
C         61.15984       55.48890      109.17673
C         61.50419       54.08959      109.68853
O         61.48466       53.87979      110.89342
C         59.69834       55.83666      109.53803
C         59.41314       57.32551      109.25448
C         57.92936       57.70874      109.31844
C         57.24521       57.35789      110.64470
N         55.87939       57.88176      110.66767
H         60.48367       55.69020      107.14856
H         61.82805       56.22258      109.68167
H         59.50939       55.64959      110.61744
H         59.02047       55.18322      108.94485
H         59.75343       57.60059      108.23360
H         59.99546       57.93746      109.97827
H         57.38458       57.20421      108.49037
H         57.86790       58.80694      109.15339
H         57.81654       57.79052      111.49448
H         57.21374       56.25194      110.76147
H         55.33481       57.51925      109.85121
H         55.40903       57.58078      111.55108
H         55.90180       58.92737      110.63630
N         61.81787       53.08220      108.82730
C         62.16776       51.72478      109.21598
C         63.44742       51.74028      110.03327
O         64.42654       52.29461      109.55851
C         62.36254       50.89799      107.91978
C         62.56254       49.43297      108.13864
O         62.50959       48.90636      109.37232
O         62.73907       48.70350      107.17747
H         61.79874       53.27641      107.82375
H         61.32509       51.28196      109.79242
H         63.22818       51.30512      107.35043
H         61.45326       51.00084      107.28739
N         63.51636       51.16956      111.27265
C         64.72846       51.20406      112.08479
C         65.90173       50.42499      111.50330
O         66.99706       50.55768      112.02991
H         62.67413       50.72928      111.67163
H         64.51918       50.79310      113.09644
H         65.02502       52.26795      112.20762
N         65.75681       49.57732      110.44447
C         66.86550       48.84561      109.82680
C         67.73397       49.76171      108.95817
O         68.71421       49.28233      108.40498
C         66.30321       47.68836      108.95823
C         65.66502       46.54845      109.78488
N         66.67549       45.75744      110.47844
O         64.74067       47.03962      110.71233
H         64.81382       49.42619      110.06984
H         67.50617       48.39258      110.61586
H         67.11160       47.22922      108.34848
H         65.55491       48.09887      108.24594
H         67.30800       45.32794      109.76492
H         66.19010       44.96626      110.95964
N         67.43425       51.08040      108.77636
C         68.18598       51.98771      107.92906
C         68.11718       51.56246      106.48565
O         67.01531       51.35136      106.00612
H         66.62204       51.48663      109.24510
H         69.23208       52.08129      108.28945
H         67.71213       52.99236      107.99547
N         69.25451       51.48396      105.72830
C         69.34084       51.10835      104.31284
C         69.26337       49.60196      104.10505
O         70.22287       49.06759      103.57828
C         68.31876       51.83285      103.40797
C         68.42692       53.33657      103.44424
C         67.41623       54.09737      104.05139
C         69.51069       53.99554      102.83796
C         67.48500       55.49232      104.05591
C         69.56850       55.39464      102.82755
C         68.55302       56.14696      103.43716
O         68.58713       57.49490      103.42912
H         70.13937       51.76819      106.17633
H         70.35522       51.41071      103.96079
H         67.29363       51.51818      103.68013
H         68.45151       51.50825      102.35226
H         66.57520       53.60899      104.52424
H         70.29525       53.42961      102.35088
H         66.70081       56.06632      104.53171
H         70.39689       55.89315      102.33962
H         69.29455       57.99092      102.99355
N         68.15165       48.87375      104.43109
C         67.92836       47.44248      104.19160
C         68.82789       46.54785      105.05700
O         68.29402       45.91920      105.96163
C         67.95023       47.09896      102.67118
C         67.03651       48.04030      101.83268
C         67.56124       45.63135      102.41609
C         65.53213       47.91263      102.10997
H         67.35458       49.37151      104.84054
H         66.89109       47.23791      104.54266
H         68.98649       47.24631      102.29957
H         67.19834       47.82641      100.75400
H         67.33607       49.09620      102.00041
H         66.54028       45.41025      102.78644
H         67.61795       45.40277      101.33079
H         68.23192       44.94036      102.94160
H         65.29238       48.13212      103.16961
H         64.97903       48.63427      101.47336
H         65.16246       46.89943      101.84966
N         70.17777       46.42753      104.86435
C         71.02666       45.62696      105.74697
C         70.98347       44.14215      105.42139
O         71.45060       43.35668      106.23359
C         72.48573       46.11618      105.70621
O         73.07590       45.86537      104.45631
H         70.62566       46.92778      104.09412
H         70.67013       45.78619      106.78951
H         73.07937       45.58247      106.47906
H         72.54072       47.19965      105.96211
H         72.87414       46.64105      103.87263
N         70.48001       43.69015      104.23493
C         70.42927       42.29346      103.81478
C         69.50938       41.42059      104.66494
O         69.42308       40.23785      104.35850
C         71.84797       41.70842      103.72089
H         70.16129       44.37790      103.54599
H         70.01545       42.26692      102.78099
H         72.34101       41.64690      104.71107
H         71.81481       40.68554      103.28838
H         72.46968       42.34005      103.04986
N         68.76998       41.90622      105.71086
C         67.88428       41.06991      106.51940
C         66.44156       41.53637      106.41208
O         66.18832       42.56612      105.79809
C         68.36423       41.08533      107.97044
H         68.81421       42.90563      105.95302
H         67.91257       40.01887      106.15807
H         68.33735       42.11972      108.37577
H         67.73084       40.43011      108.60334
H         69.41043       40.71277      108.01859
N         65.42513       40.76853      106.91876
C         64.00556       41.08299      106.74269
C         63.59702       41.16508      105.27220
O         62.47885       41.58588      105.00752
C         63.58979       42.34144      107.54757
C         63.40409       42.00632      109.03817
C         62.83706       43.16297      109.80478
O         61.75851       43.64081      109.48581
O         63.48958       43.64429      110.87908
H         65.66252       39.88586      107.39677
H         63.38521       40.24939      107.13947
H         62.59329       42.68327      107.19369
H         64.30704       43.17327      107.39921
H         64.36449       41.68045      109.48835
H         62.66778       41.17712      109.13125
N         64.39658       40.69728      104.26870
C         64.00936       40.71516      102.87290
H         63.01986       41.19150      102.70995
H         64.76787       41.27640      102.28985
H         63.96023       39.67220      102.49568
H         65.30762       40.27020      104.48213
Ca        62.68264       46.28483      110.10445
O         59.91451       46.95499      108.53548
H         59.90702       47.47189      107.69121
H         58.95802       46.81217      108.74836
O         60.87603       48.38933      111.73445
H         61.33189       48.75468      112.53346
H         60.17713       49.05628      111.51826
O         59.81262       45.47598      111.22645
H         59.20535       46.07022      111.73469
H         59.63133       44.57021      111.58207
O         63.80924       45.68680      107.42345
H         64.11901       45.45619      106.51263
H         62.95869       46.17083      107.28187
O         62.78024       45.87166      113.12237
H         61.95948       45.57659      113.59079
H         62.87589       46.82701      113.36407

Ca 1.0



