%chk=apoCaM-CA-Ng.loop3.water4.frame111.chk
%nprocshared=20
%mem=10GB
%nosave
#b3lyp/svp scf=(tight,noincore,xqc) Test 
#IOP(5/87=12) Density=Current Pop=(MK,readradii) iop(6/33=2) iop(6/42=6)

apoCaM-CA-Ng.loop3.water4.frame111 

   0  1 
C         29.19218       84.47079       99.91493
C         28.76992       85.49131      100.93073
O         27.84791       86.25168      100.67499
H         30.25938       84.62960       99.64985
H         29.07469       83.45201      100.34081
H         28.57914       84.54814       98.99238
N         29.42978       85.56283      102.11925
C         29.13499       86.50727      103.19117
C         29.32953       87.94618      102.72033
O         28.45911       88.78250      102.92029
C         27.73255       86.22172      103.78549
C         27.42360       86.98076      105.05144
O         26.34073       86.82433      105.59216
O         28.32378       87.81460      105.60906
H         30.20940       84.90501      102.27842
H         29.88453       86.31980      103.99289
H         27.66634       85.13907      104.02939
H         26.95190       86.45343      103.03017
N         30.46619       88.29026      102.05287
C         30.76912       89.64785      101.60515
C         30.52243       89.81577      100.10872
O         30.81976       90.87576       99.57502
C         32.23311       89.97500      101.96512
C         32.49378       89.83920      103.47642
C         33.92470       90.23170      103.88361
C         35.04831       89.38493      103.25308
N         34.95205       87.96847      103.61072
H         31.14132       87.54570      101.81642
H         30.11138       90.38833      102.11162
H         32.46250       91.01715      101.65236
H         32.89906       89.28342      101.40558
H         32.28598       88.80164      103.81286
H         31.79213       90.51117      104.01663
H         34.00281       90.15231      104.98980
H         34.09215       91.29546      103.60855
H         36.01981       89.78174      103.62265
H         35.04946       89.49417      102.14772
H         35.78225       87.46469      103.22268
H         34.94734       87.85694      104.65055
H         34.09154       87.54173      103.19986
N         29.93228       88.82780       99.37883
C         29.64381       88.91027       97.95227
C         28.71469       90.08467       97.65084
O         27.74299       90.27706       98.36874
C         29.01110       87.57358       97.50392
C         28.99063       87.41604       96.01555
O         29.57626       86.48317       95.48958
O         28.33233       88.29563       95.25216
H         29.66338       87.96025       99.85829
H         30.60681       89.02530       97.40587
H         27.98436       87.48230       97.91825
H         29.62068       86.73482       97.90571
N         28.93897       90.88066       96.56550
C         28.13045       92.03754       96.19821
C         26.64223       91.75447       96.17423
O         25.90584       92.49790       96.80789
H         29.72438       90.64437       95.94052
H         28.45473       92.38874       95.19411
H         28.32279       92.86544       96.91601
N         26.12972       90.67988       95.50899
C         24.70770       90.34618       95.51307
C         24.44358       89.14824       96.42133
O         23.68434       89.30064       97.36820
C         24.14794       90.18210       94.07812
C         24.68522       89.01010       93.29211
N         23.85852       88.02003       92.87753
O         25.87039       88.96145       93.00887
H         26.78275       90.05097       95.03280
H         24.13043       91.19542       95.94293
H         24.35298       91.11006       93.50063
H         23.04482       90.08042       94.16068
H         22.85197       88.04304       93.09538
H         24.22259       87.22401       92.33356
N         25.04491       87.94011       96.21693
C         24.85278       86.77743       97.07717
C         24.20535       85.65287       96.30911
O         23.08952       85.85146       95.84814
H         25.68819       87.84044       95.42632
H         24.19500       87.01254       97.94172
H         25.83622       86.46297       97.48214
N         24.83257       84.44666       96.12319
C         24.20510       83.35071       95.38065
C         24.92530       83.10441       94.06927
O         26.01117       83.62024       93.86600
C         24.17130       82.03475       96.18649
C         23.66928       82.15790       97.60592
C         24.47003       81.67743       98.65837
C         22.41344       82.71371       97.90264
C         24.02567       81.74589       99.97914
C         21.97456       82.79187       99.23121
C         22.77966       82.30372      100.27276
O         22.36823       82.36100      101.55553
H         25.78668       84.31201       96.49167
H         23.16124       83.63419       95.12614
H         25.19952       81.60966       96.20912
H         23.52812       81.30762       95.64477
H         25.43713       81.23259       98.45808
H         21.77693       83.08851       97.11164
H         24.65158       81.35987      100.77434
H         21.00780       83.22664       99.45081
H         21.51255       82.73539      101.80743
N         24.34592       82.33397       93.11076
C         24.90858       82.14382       91.77829
C         23.96389       82.81245       90.79541
O         24.39544       83.73014       90.11273
C         25.14819       80.63460       91.49862
C         26.11564       79.99784       92.53698
C         25.66757       80.38849       90.06911
C         27.56397       80.50859       92.48409
H         23.42844       81.91074       93.31610
H         25.88868       82.66029       91.68029
H         24.17145       80.11149       91.59804
H         26.14286       78.89931       92.37041
H         25.71927       80.16474       93.56138
H         24.95044       80.74986       89.31578
H         26.62255       80.92061       89.88339
H         25.81377       79.30080       89.89761
H         28.16236       79.99779       93.26689
H         28.03587       80.27451       91.50746
H         27.62351       81.59986       92.66657
N         22.64033       82.47451       90.73420
C         21.68944       83.22069       89.91282
C         21.86511       82.97057       88.42489
O         21.33712       83.75316       87.64691
C         20.24171       82.90730       90.32410
O         20.04748       83.16580       91.68945
H         22.28603       81.73728       91.36094
H         21.85914       84.30402       90.11097
H         20.02312       81.83467       90.13507
H         19.51760       83.50445       89.72416
H         20.06980       84.15235       91.80039
N         22.58303       81.90685       87.95082
C         22.83838       81.65129       86.53650
C         23.68851       82.74644       85.90107
O         23.77743       82.79058       84.68274
C         21.52808       81.38926       85.77572
H         22.97130       81.23350       88.62019
H         23.42848       80.71300       86.44290
H         21.74907       81.10245       84.72496
H         20.99020       80.53998       86.24989
H         20.86056       82.27244       85.75851
N         24.39328       83.62739       86.67412
C         25.25605       84.67027       86.14011
C         26.67461       84.51432       86.65956
O         26.92177       83.68270       87.52174
C         24.69639       86.02823       86.56647
H         24.34101       83.55709       87.69518
H         25.28232       84.62319       85.03035
H         25.31314       86.85876       86.16563
H         23.65971       86.13984       86.18439
H         24.67287       86.10152       87.67662
N         27.67052       85.29367       86.14520
C         29.06024       85.26031       86.58882
C         29.60979       83.84255       86.52868
O         30.07318       83.32342       87.53805
C         29.20160       85.84468       88.00726
C         28.60175       87.24683       88.16138
C         28.83820       87.68927       89.56848
O         27.81030       87.80930       90.42148
O         29.97770       87.85071       89.97706
H         27.43882       85.94267       85.37815
H         29.65628       85.90708       85.90581
H         30.28598       85.87976       88.25961
H         28.69474       85.17722       88.73966
H         27.50745       87.19938       87.96958
H         29.05879       87.97394       87.45642
N         29.55014       83.13140       85.37416
C         29.98819       81.75404       85.31548
H         31.06533       81.68363       85.57692
H         29.39688       81.14432       86.03412
H         29.83186       81.34756       84.29552
H         29.15587       83.56624       84.52652
Ca        28.44864       87.91408       92.56215
O         29.28621       90.67120       92.57506
H         28.36798       90.83594       92.90738
H         29.80600       90.44264       93.38622
O         29.38991       84.83037       92.03349
H         28.45978       84.58959       91.79359
H         29.93115       84.52859       91.26144
O         31.43456       87.61574       93.06203
H         31.61004       87.19682       93.94133
H         32.15397       87.27076       92.47628
O         26.61243       86.18693       93.96776
H         27.46343       85.68930       93.88934
H         26.13767       86.01874       93.11616

Ca 1.0



