%chk=apoCaM-CA-Ng.loop2.water3.frame380.chk
%nprocshared=20
%mem=10GB
%nosave
#b3lyp/svp scf=(tight,noincore,xqc) Test 
#IOP(5/87=12) Density=Current Pop=(MK,readradii) iop(6/33=2) iop(6/42=6)

apoCaM-CA-Ng.loop2.water3.frame380 

   -2  1 
C          4.86791      103.36398       11.67833
C          3.41322      103.35441       12.05792
O          2.71476      104.31819       11.77962
H          5.49721      103.25097       12.58637
H          5.07746      102.51980       10.98750
H          5.14297      104.31364       11.17137
N          2.89451      102.27763       12.71086
C          1.49717      102.15400       13.12077
C          1.40044      102.07277       14.62892
O          2.15014      101.32001       15.23380
C          0.81695      100.93117       12.47567
C          1.39965       99.60006       12.87740
O          0.71641       98.79907       13.49534
O          2.65900       99.26879       12.53694
H          3.53793      101.50763       12.93684
H          0.91340      103.03692       12.77818
H          0.85241      101.02528       11.37016
H         -0.25373      100.95554       12.78195
N          0.49628      102.83911       15.30198
C          0.42296      102.89785       16.75622
C          0.86970      104.27217       17.19637
O          1.17805      105.09605       16.34401
C         -0.97626      102.52344       17.24641
H         -0.13531      103.45344       14.76466
H          1.14003      102.17979       17.21246
H         -1.73991      103.21586       16.83686
H         -1.21541      101.48698       16.92274
H         -1.01993      102.54874       18.35617
N          1.03731      104.56594       18.51462
C          1.90509      105.66814       18.91848
C          1.15720      106.90870       19.34294
O         -0.02915      106.85503       19.63634
C          2.91513      105.16208       19.96280
C          3.68865      104.01996       19.35935
O          4.44523      104.26371       18.27686
O          3.60516      102.89006       19.81221
H          0.77768      103.85925       19.22041
H          2.50199      105.99409       18.03573
H          2.36891      104.82302       20.87018
H          3.62306      105.96744       20.25345
N          1.80823      108.10538       19.26443
C          1.15078      109.38113       19.50870
C          1.96374      110.64021       19.17601
O          1.38501      111.70751       19.32061
H          2.78229      108.06526       18.95525
H          0.83047      109.42381       20.57222
H          0.24112      109.42420       18.86982
N          3.26171      110.63566       18.72659
C          4.00809      111.84257       18.37375
C          4.48520      111.75108       16.93375
O          5.18629      110.80582       16.59588
C          5.24759      111.99917       19.27923
C          4.94145      112.24342       20.73652
N          5.96122      112.42681       21.60616
O          3.78875      112.29188       21.13965
H          3.78372      109.76207       18.61686
H          3.38509      112.75651       18.49189
H          5.83332      112.87411       18.91977
H          5.88711      111.09282       19.19537
H          6.93899      112.39633       21.28060
H          5.77580      112.60544       22.60391
N          4.16770      112.72342       16.03219
C          4.64348      112.71522       14.65613
C          6.14391      112.91140       14.55077
O          6.81617      113.07023       15.56106
H          3.55997      113.50299       16.32578
H          4.17087      113.55884       14.10791
H          4.33864      111.76684       14.16388
N          6.73337      112.91844       13.32089
C          8.15778      113.16471       13.11113
C          8.93739      111.86346       13.05790
O          9.96606      111.78726       13.71626
C          8.42823      114.10296       11.90392
C          8.09292      113.51360       10.52884
O          7.77251      115.33364       12.08286
H          6.13850      112.74054       12.49819
H          8.56102      113.73333       13.98104
H          9.52091      114.31451       11.88792
H          6.79969      115.18094       11.95743
H          8.34685      114.24844        9.73571
H          8.70589      112.61612       10.35313
H          7.01912      113.25357       10.43937
N          8.47000      110.76766       12.38566
C          9.14243      109.46871       12.45127
C          8.46364      108.62852       13.52067
O          7.37673      108.98256       13.95892
C          9.18402      108.79205       11.03958
C          9.80700      109.70960        9.95703
C          9.89517      107.42657       11.03272
C         11.22030      110.21144       10.26642
H          7.55045      110.82029       11.92161
H         10.18136      109.61046       12.81758
H          8.13632      108.59918       10.71569
H          9.15152      110.58437        9.81105
H          9.82096      109.16974        8.98495
H          9.90435      107.00471       10.00504
H         10.94124      107.51280       11.39240
H          9.34772      106.69102       11.65410
H         11.22584      110.83765       11.18209
H         11.92865      109.36815       10.39048
H         11.57412      110.84553        9.42678
N          9.09570      107.54094       14.05092
C          8.53728      106.74485       15.13322
C          9.46615      106.76432       16.35815
O          9.29913      105.94756       17.25383
C          8.24521      105.31802       14.60311
C          7.31072      104.55823       15.51405
O          6.88834      105.08045       16.53479
O          6.86556      103.32461       15.20966
H         10.02782      107.27467       13.70151
H          7.55851      107.16869       15.44660
H          9.19297      104.76369       14.43073
H          7.71077      105.40694       13.63191
N         10.42592      107.72502       16.50143
C         11.31622      107.81284       17.65662
C         12.31254      106.66262       17.62956
O         12.99999      106.53979       16.62261
C         12.08749      109.15448       17.60316
C         12.95309      109.39712       18.81793
C         14.34928      109.49771       18.68905
C         12.37025      109.55006       20.08879
C         15.14631      109.74182       19.81209
C         13.17100      109.79616       21.20846
C         14.55784      109.89175       21.07037
H         10.50263      108.45999       15.78234
H         10.70167      107.82138       18.58126
H         11.36377      109.99585       17.53420
H         12.70423      109.17436       16.67679
H         14.82226      109.38784       17.72132
H         11.29667      109.48659       20.21285
H         16.22078      109.81823       19.70633
H         12.71584      109.91669       22.18313
H         15.17612      110.08491       21.93766
N         12.50765      105.80169       18.67641
C         13.54119      104.78126       18.66603
C         13.16106      103.55756       17.84513
O         14.03416      102.73213       17.61980
C         13.73269      104.46034       20.15023
C         12.31928      104.60774       20.68090
C         11.84066      105.87084       19.96170
H         14.49634      105.19159       18.26624
H         14.24345      103.49816       20.36991
H         14.32976      105.28309       20.60778
H         11.73359      103.74029       20.30127
H         12.22240      104.64400       21.78696
H         10.73297      105.85835       19.88581
H         12.18698      106.78788       20.48404
N         11.89251      103.35041       17.37960
C         11.55770      102.19862       16.54407
C         12.09841      102.35838       15.13111
O         12.05773      101.38911       14.38421
C         10.03160      101.98529       16.48121
C          9.47406      101.56605       17.84887
C          7.98706      101.39314       17.81377
O          7.21581      102.10263       18.65898
O          7.47196      100.59480       17.04634
H         11.14410      104.00592       17.64358
H         12.00951      101.28562       16.99472
H          9.79705      101.17245       15.75770
H          9.54620      102.91878       16.12562
H          9.72354      102.32760       18.61728
H          9.93270      100.59864       18.14683
N         12.58730      103.54527       14.67233
C         13.08670      103.69983       13.32474
H         13.96498      103.03838       13.16999
H         12.29133      103.44292       12.59290
H         13.39680      104.75299       13.15559
H         12.58807      104.37817       15.27554
Ca         5.32614      102.83174       16.77568
O          5.45099      100.62088       14.57230
H          4.62280      100.08302       14.64330
H          5.77768      100.45619       13.65225
O          3.90543      104.93427       15.15556
H          3.08196      104.89339       14.60847
H          4.14482      105.89454       15.17485
O          3.74044      100.35693       17.70078
H          3.03743       99.88232       17.19111
H          3.38589      100.40133       18.62361

Ca 1.0



