%chk=apoCaM-CA-Ng.loop2.water6.frame741.chk
%nprocshared=20
%mem=10GB
%nosave
#b3lyp/svp scf=(tight,noincore,xqc) Test 
#IOP(5/87=12) Density=Current Pop=(MK,readradii) iop(6/33=2) iop(6/42=6)

apoCaM-CA-Ng.loop2.water6.frame741 

   -2  1 
C         83.80447       21.18233      -17.40364
C         84.03554       21.83130      -18.73443
O         83.07432       22.16199      -19.41445
H         82.71723       21.06813      -17.20587
H         84.27915       20.17907      -17.38926
H         84.24947       21.80998      -16.60326
N         85.30571       22.03876      -19.17872
C         85.59555       22.67692      -20.45606
C         85.10250       24.11215      -20.42904
O         85.54272       24.87643      -19.57976
C         87.10980       22.61506      -20.75059
C         87.45434       23.20631      -22.09028
O         88.31511       24.23874      -22.17024
O         86.96854       22.74545      -23.11126
H         86.08896       21.71881      -18.58671
H         85.08181       22.10407      -21.26019
H         87.43206       21.55053      -20.75225
H         87.67534       23.14545      -19.95348
N         84.18758       24.54859      -21.34239
C         83.67918       25.91765      -21.34447
C         82.79532       26.16239      -20.12929
O         82.40690       25.19622      -19.48629
C         82.88547       26.17107      -22.63289
H         83.86706       23.89186      -22.07047
H         84.55865       26.59763      -21.32218
H         83.54693       25.99635      -23.50793
H         82.01935       25.47843      -22.69520
H         82.50295       27.20803      -22.69629
N         82.44848       27.40523      -19.68813
C         82.90110       28.67900      -20.24632
C         83.93402       29.29006      -19.31709
O         84.30056       28.65592      -18.33556
C         81.68301       29.60746      -20.50135
C         80.92585       30.02877      -19.26315
O         79.93393       30.73084      -19.37544
O         81.33180       29.64717      -18.03680
H         81.88219       27.44084      -18.82761
H         83.41661       28.54308      -21.21359
H         80.98156       29.08152      -21.18440
H         82.01731       30.53019      -21.02150
N         84.44862       30.52868      -19.54818
C         85.38848       31.13424      -18.62444
C         86.81039       30.65717      -18.84880
O         87.05414       29.96257      -19.82548
H         84.10383       31.09122      -20.33958
H         85.03440       30.94061      -17.59331
H         85.39142       32.22873      -18.78927
N         87.84217       31.03022      -18.03335
C         87.68809       31.73739      -16.76538
C         88.38970       30.94609      -15.67039
O         89.18865       31.50794      -14.93162
C         88.23878       33.17419      -16.88502
C         87.42074       34.00228      -17.84321
N         87.96491       34.49282      -18.98012
O         86.25044       34.24022      -17.58244
H         88.80004       30.75887      -18.30836
H         86.62710       31.80796      -16.46216
H         89.30049       33.12578      -17.21144
H         88.20191       33.68372      -15.89716
H         88.94854       34.30465      -19.22039
H         87.39561       35.05735      -19.62824
N         88.15197       29.60971      -15.51932
C         88.79012       28.82769      -14.47170
C         88.21068       29.11231      -13.09965
O         88.77503       28.63455      -12.12551
H         87.53508       29.12339      -16.18723
H         89.88395       29.03159      -14.48848
H         88.65069       27.74258      -14.66611
N         87.05885       29.82983      -12.94565
C         86.43682       30.11476      -11.65610
C         85.09616       29.40744      -11.54483
O         84.68297       28.74531      -12.48671
C         86.29423       31.64813      -11.48248
C         87.66414       32.30346      -11.30232
O         85.66066       32.22124      -12.60023
H         86.56392       30.17210      -13.78215
H         87.05209       29.71518      -10.81972
H         85.72264       31.88800      -10.55736
H         84.68230       32.13438      -12.46408
H         88.32156       32.10908      -12.17551
H         87.54361       33.40090      -11.18262
H         88.15278       31.90508      -10.38678
N         84.39260       29.45781      -10.37572
C         83.13484       28.75246      -10.14598
C         82.05984       29.75804       -9.76767
O         82.20209       30.44670       -8.76588
C         83.33003       27.66928       -9.04015
C         81.98412       26.98015       -8.68140
C         84.36916       26.63433       -9.51859
C         82.08658       25.92965       -7.57536
H         84.78769       29.99220       -9.58626
H         82.81018       28.22074      -11.06857
H         83.71925       28.16449       -8.12253
H         81.55686       26.49448       -9.57774
H         81.26718       27.74847       -8.32127
H         84.59162       25.88912       -8.73005
H         83.99945       26.10380      -10.42330
H         85.33330       27.12493       -9.76479
H         82.70276       25.06544       -7.89505
H         82.51520       26.37688       -6.65414
H         81.07107       25.54282       -7.34527
N         80.93761       29.86838      -10.53143
C         79.82049       30.75841      -10.24427
C         78.51823       29.98318      -10.02275
O         77.48345       30.62339       -9.91366
C         79.69816       31.81405      -11.36749
C         79.57739       31.24132      -12.75171
O         80.40879       31.53115      -13.59698
O         78.55293       30.43039      -13.07615
H         80.85780       29.27753      -11.37098
H         79.99272       31.33552       -9.30926
H         80.60734       32.45538      -11.33403
H         78.82425       32.47127      -11.17120
N         78.49181       28.61729       -9.90082
C         77.26959       27.85407       -9.64109
C         77.57165       26.34614       -9.60464
O         78.43697       25.96867       -8.82685
C         76.67876       28.22814       -8.25469
C         75.31511       27.60874       -8.08142
C         74.20822       28.17581       -8.73657
C         75.13547       26.45918       -7.29451
C         72.94101       27.60291       -8.60485
C         73.86734       25.88022       -7.17786
C         72.77123       26.45291       -7.83011
H         79.37323       28.10135       -9.96709
H         76.53449       28.09750      -10.43617
H         76.56686       29.31958       -8.09890
H         77.38008       27.87948       -7.46404
H         74.32910       29.06360       -9.34549
H         75.97741       25.99930       -6.79252
H         72.09249       28.04826       -9.10804
H         73.73423       24.98492       -6.58488
H         71.79041       26.00519       -7.73718
N         76.85660       25.41009      -10.31573
C         76.96876       23.97535      -10.07303
C         77.97890       23.29560      -10.99716
O         77.62943       22.35270      -11.69566
C         75.53097       23.49757      -10.31413
C         75.14169       24.34429      -11.51804
C         75.68423       25.71388      -11.11344
H         77.25805       23.75065       -9.02240
H         75.40520       22.39956      -10.43088
H         74.90171       23.82568       -9.45437
H         75.71571       23.97779      -12.39725
H         74.06174       24.33907      -11.77661
H         75.89945       26.35100      -11.99712
H         74.93887       26.20755      -10.45869
N         79.27324       23.70678      -11.02408
C         80.31357       23.01675      -11.77894
C         80.60255       21.69091      -11.11157
O         80.54111       20.66930      -11.78153
C         81.58641       23.89185      -11.88848
C         81.41620       24.99285      -12.95787
C         80.25610       25.90005      -12.69194
O         79.28997       25.90277      -13.43536
O         80.26818       26.70547      -11.62485
H         79.54050       24.52094      -10.45699
H         79.98101       22.81934      -12.82412
H         82.43215       23.26357      -12.24435
H         81.86999       24.30807      -10.89656
H         81.25639       24.49444      -13.93957
H         82.34221       25.60185      -13.03643
N         80.88206       21.63081       -9.77929
C         81.12584       20.38898       -9.07311
H         82.11045       20.44104       -8.56525
H         80.33285       20.23968       -8.31010
H         81.12642       19.50833       -9.74980
H         80.88921       22.50134       -9.22644
Ca        80.21829       30.15073      -16.14551
O         79.32327       27.42691      -15.74213
H         78.39225       27.19301      -15.50105
H         79.53383       26.84979      -16.51778
O         83.04942       31.24065      -15.91162
H         83.35570       31.84599      -15.19101
H         82.83678       31.84180      -16.66956
O         79.73568       33.04301      -16.60628
H         80.51542       33.60822      -16.37851
H         80.03625       32.51796      -17.38939
O         81.80846       29.11430      -13.74901
H         81.33464       28.25864      -13.60836
H         82.72985       28.85145      -13.98591
O         82.27935       27.31304      -16.11375
H         82.88006       26.59666      -16.43661
H         82.77777       28.15142      -16.28193
O         77.38272       29.89534      -16.85260
H         76.99865       29.05823      -16.49008
H         77.22635       30.56781      -16.14271

Ca 1.0



