%chk=apoCaM-CA-Ng.loop4.water4.frame358.chk
%nprocshared=20
%mem=10GB
%nosave
#b3lyp/svp scf=(tight,noincore,xqc) Test 
#IOP(5/87=12) Density=Current Pop=(MK,readradii) iop(6/33=2) iop(6/42=6)

apoCaM-CA-Ng.loop4.water4.frame358 

   -3  1 
C         89.23150       90.95674       43.97778
C         90.64123       90.54474       44.38839
O         90.69301       90.58033       45.78634
H         88.49069       90.26057       44.43067
H         89.01923       91.98453       44.33991
H         89.12064       90.93279       42.87445
N         90.94410       89.20170       43.84873
C         92.22996       88.57721       44.23427
C         92.24491       88.18666       45.70386
O         92.84388       88.87415       46.50945
C         93.52634       89.20190       43.62075
C         93.77618       90.65608       43.88100
O         94.30437       91.02811       45.05696
O         93.17125       91.48539       43.21861
H         90.90550       89.25046       42.80373
H         92.24620       87.58497       43.72896
H         93.48252       89.08204       42.51585
H         94.41121       88.61992       43.95937
N         91.54846       87.06714       46.08353
C         91.39819       86.45206       47.40989
C         92.70838       85.84571       47.92284
O         92.78561       84.62984       48.03289
C         90.69370       87.36241       48.46344
C         90.18395       86.54794       49.69278
C         89.52634       88.16390       47.86772
C         89.03949       85.55794       49.39960
H         91.04246       86.57350       45.33096
H         90.71180       85.59862       47.23229
H         91.43251       88.10988       48.82143
H         89.80856       87.26423       50.45552
H         91.01971       85.97923       50.14819
H         89.05981       88.80248       48.64863
H         89.89330       88.83077       47.08004
H         88.75848       87.51031       47.41018
H         88.72955       85.05961       50.34090
H         88.14417       86.07599       48.99851
H         89.34349       84.76257       48.69088
N         93.78670       86.62045       48.22982
C         95.08173       86.09348       48.63727
C         95.08259       85.53808       50.05657
O         95.59535       84.44034       50.22135
C         96.19622       87.16001       48.48093
C         96.41933       87.59084       47.04869
O         97.39356       88.47805       46.77192
O         95.74910       87.13689       46.13345
H         93.71553       87.63494       48.13686
H         95.38488       85.27830       47.93903
H         97.15604       86.72486       48.83554
H         95.98213       88.05849       49.09093
N         94.60603       86.20034       51.15525
C         93.82481       87.42982       51.11672
C         93.43738       87.90480       52.51308
O         93.14392       87.05105       53.33830
H         94.76443       85.75128       52.07074
H         92.88376       87.21207       50.58292
H         94.34328       88.19733       50.54628
N         93.29489       89.22084       52.87770
C         93.45072       90.39795       52.02892
C         92.52322       90.31958       50.82247
O         93.01421       90.14668       49.71632
C         94.93268       90.68134       51.66891
C         95.77016       90.86202       52.90437
O         95.47025       91.83135       53.79044
O         96.73307       90.13921       53.10496
H         92.98208       89.40636       53.84412
H         93.14973       91.29885       52.60705
H         94.98163       91.62434       51.08155
H         95.38940       89.89546       51.04620
N         91.16886       90.49013       50.90357
C         90.42256       90.88627       52.08896
C         90.15610       89.77176       53.06229
O         90.55887       88.64076       52.83580
H         90.63848       90.45288       50.02287
H         89.41742       91.22936       51.76817
H         90.91408       91.75118       52.58162
N         89.41165       90.04058       54.17267
C         89.06866       89.04595       55.18121
C         87.57639       88.71465       55.17734
O         87.19119       87.80622       55.89868
C         89.66838       89.45333       56.55155
C         89.26821       90.82901       57.12365
C         87.85482       90.89316       57.62101
N         87.45332       90.10067       58.64126
O         87.07858       91.69884       57.13460
H         89.05715       91.00145       54.29455
H         89.55512       88.07834       54.92635
H         90.76960       89.49525       56.40037
H         89.47826       88.65671       57.30227
H         89.46040       91.62804       56.37799
H         89.92021       91.04753       57.99661
H         88.10499       89.43716       59.08340
H         86.49738       90.16555       59.01217
N         86.70232       89.32622       54.31782
C         85.33078       88.86584       54.08564
C         84.27263       89.89472       54.45643
O         83.10223       89.58049       54.27201
C         85.15825       88.40777       52.60070
C         85.95903       87.12889       52.32001
C         85.53084       89.49644       51.57589
H         87.03020       90.11000       53.74133
H         85.09899       87.98434       54.72369
H         84.08868       88.14380       52.44059
H         85.62782       86.31843       53.00490
H         85.77729       86.78464       51.27871
H         87.04756       87.29590       52.45808
H         85.30392       89.14303       50.54755
H         84.95199       90.42538       51.75913
H         86.61564       89.73193       51.60713
N         84.56534       91.09475       55.03634
C         83.52426       92.01860       55.47991
C         83.68105       93.42088       54.92227
O         82.82606       94.23445       55.24085
C         83.52779       92.11017       57.02250
C         83.28479       90.78171       57.69207
N         82.13758       90.09463       57.48806
O         84.12803       90.32831       58.44738
H         85.54548       91.33458       55.23578
H         82.51933       91.66496       55.16200
H         82.72730       92.80397       57.36118
H         84.50296       92.52585       57.35951
H         81.40293       90.46017       56.86640
H         81.98205       89.19232       57.96189
N         84.71709       93.80874       54.11342
C         84.87674       95.21160       53.73538
C         85.91129       95.45153       52.64838
O         86.99730       94.89341       52.67318
C         85.15747       96.11136       54.97611
C         86.28903       95.65766       55.88313
C         87.63639       95.70181       55.48134
C         85.98845       95.20493       57.18246
C         88.65163       95.28292       56.34861
C         87.00392       94.79213       58.04860
C         88.33758       94.82524       57.63544
O         89.30552       94.42259       58.48346
H         85.40718       93.11974       53.78478
H         83.91132       95.56227       53.30766
H         84.22896       96.13681       55.58034
H         85.32464       97.16372       54.65968
H         87.91674       96.07306       54.50927
H         84.96367       95.16850       57.53066
H         89.68315       95.32155       56.02148
H         86.75204       94.44650       59.04343
H         90.24184       94.43237       58.23897
N         85.62966       96.40049       51.70569
C         86.56482       96.96047       50.73907
C         86.97164       96.00700       49.62189
O         87.66364       96.45486       48.71864
C         87.71631       97.67138       51.48843
C         88.50001       98.66018       50.60552
C         89.45171       99.51677       51.39817
O         90.11216      100.36725       50.82386
O         89.57034       99.38058       52.73425
H         84.70228       96.85136       51.73270
H         86.00502       97.77106       50.21781
H         88.40142       96.94168       51.96930
H         87.23582       98.27902       52.28919
H         87.78060       99.34527       50.10453
H         89.07635       98.11464       49.83222
N         86.46829       94.73955       49.52446
C         86.58318       93.95296       48.30029
C         85.26014       93.97538       47.54643
O         85.21086       93.43986       46.44715
C         86.98715       92.49490       48.59639
C         88.31766       92.31671       49.33440
C         89.49864       92.83135       48.56040
O         89.64696       94.14869       48.33051
O         90.35260       92.05700       48.16518
H         85.84777       94.37367       50.25933
H         87.32312       94.40459       47.60740
H         87.04796       91.93111       47.63790
H         86.19109       92.02528       49.21550
H         88.44146       91.22314       49.49662
H         88.28369       92.81089       50.32753
N         84.14757       94.58718       48.05248
C         82.90194       94.64310       47.32522
H         82.13483       95.16373       47.93812
H         83.04599       95.20895       46.38107
H         82.54509       93.61624       47.10241
H         84.15834       95.03566       48.97848
Ca        92.60140       91.68938       46.27655
O         95.30070       90.90844       48.11885
H         96.21653       91.14048       48.41384
H         95.42996       90.21696       47.42378
O         92.66692       93.25282       49.58841
H         92.87243       93.81751       50.37463
H         92.36177       93.89107       48.89585
O         91.56074       94.37594       45.72754
H         90.79161       93.77281       45.88570
H         92.01497       93.99125       44.93608
O         94.97304       93.82228       47.29531
H         95.92964       93.60720       47.43229
H         94.71096       94.30570       48.11815

Ca 1.0



