%chk=apoCaM-CA-Ng.loop1.water5.frame99.chk
%nprocshared=20
%mem=10GB
%nosave
#b3lyp/svp scf=(tight,noincore,xqc) Test 
#IOP(5/87=12) Density=Current Pop=(MK,readradii) iop(6/33=2) iop(6/42=6)

apoCaM-CA-Ng.loop1.water5.frame99 

   0  1 
C         53.51958       28.73190      101.38505
C         52.49567       28.05569      102.24959
O         52.66509       28.02224      103.45980
H         54.49940       28.22624      101.50834
H         53.23869       28.68632      100.31048
H         53.61177       29.79796      101.67714
N         51.39222       27.49293      101.68558
C         50.33241       26.83547      102.44251
C         50.73459       25.49191      103.08640
O         49.86022       24.83823      103.62149
C         48.99237       26.85654      101.64430
C         48.90562       26.16645      100.31107
O         47.87132       25.33691      100.07471
O         49.65646       26.45980       99.39441
H         51.27919       27.60621      100.66990
H         50.06685       27.48486      103.29793
H         48.75251       27.92469      101.44639
H         48.18367       26.45795      102.28824
N         52.03498       25.05043      103.14867
C         52.46810       23.83449      103.85336
C         53.47627       24.15870      104.96316
O         54.34279       24.98026      104.70660
C         53.16029       22.85997      102.86051
C         52.15611       22.01876      102.06390
C         51.41135       22.74408      100.93907
C         50.08802       22.01496      100.67821
N         49.38570       22.55916       99.52573
H         52.77592       25.59295      102.69393
H         51.61312       23.31916      104.31559
H         53.71592       22.11362      103.46496
H         53.91532       23.36801      102.22122
H         51.43947       21.61079      102.80433
H         52.66968       21.14447      101.60588
H         52.06316       22.78312      100.03931
H         51.14720       23.77962      101.20434
H         49.45932       22.16723      101.58080
H         50.24644       20.92513      100.53022
H         48.41489       22.16944       99.50361
H         49.34101       23.59302       99.59976
H         49.89056       22.30302       98.64920
N         53.55925       23.48845      106.17139
C         52.68759       22.43209      106.70739
C         52.51245       21.27149      105.74685
O         51.41967       21.08042      105.23881
C         51.34604       23.00267      107.20831
C         51.51781       23.90897      108.38564
O         52.72312       24.08428      108.96138
O         50.54919       24.50745      108.82639
H         54.35721       23.74035      106.77694
H         53.14913       22.00079      107.62349
H         50.70167       22.17962      107.56873
H         50.83168       23.55181      106.39455
N         53.51496       20.40062      105.45595
C         54.82358       20.41108      106.09832
C         55.71371       19.29792      105.58079
O         55.33918       18.61944      104.63282
H         53.28422       19.66187      104.77367
H         54.69213       20.26205      107.18740
H         55.32722       21.38473      105.92936
N         56.93388       19.02414      106.11453
C         57.53754       19.70176      107.25992
C         57.09502       19.09309      108.57963
O         57.17203       17.88053      108.73085
C         59.08396       19.66514      107.18387
C         59.71452       18.29088      107.22374
O         59.55609       17.49763      106.31018
O         60.50221       17.94768      108.25993
H         57.46415       18.27697      105.64941
H         57.28506       20.78388      107.23273
H         59.46440       20.24066      108.05711
H         59.42177       20.18871      106.26496
N         56.71148       19.89261      109.62026
C         56.41013       19.36754      110.94382
C         55.22442       18.45252      110.87422
O         55.37252       17.26451      111.11740
H         56.68876       20.91482      109.48901
H         56.19706       20.19907      111.65060
H         57.29973       18.81671      111.32407
N         54.00995       18.94816      110.51692
C         52.86180       18.09353      110.22736
C         52.35423       18.40376      108.83031
O         52.72355       19.43056      108.28674
C         51.77410       18.21357      111.32406
C         51.28278       19.64502      111.58158
O         52.23732       17.65021      112.52691
H         53.91529       19.96889      110.39136
H         53.18316       17.03123      110.20128
H         50.90124       17.60814      110.99857
H         53.02312       18.17588      112.83057
H         50.47532       19.62648      112.34532
H         52.10360       20.28604      111.96823
H         50.88435       20.09400      110.65432
N         51.50554       17.55345      108.17609
C         51.05851       17.81118      106.80433
C         49.61954       18.31950      106.81578
O         48.80562       17.88756      106.01273
C         51.32219       16.57694      105.86818
C         50.47504       15.32966      106.25996
C         52.82477       16.22727      105.84650
C         50.56754       14.18119      105.24964
H         51.17270       16.71237      108.66571
H         51.63705       18.65520      106.38283
H         51.03124       16.88230      104.83815
H         49.40427       15.60355      106.30626
H         50.76815       14.94934      107.26063
H         53.42318       17.11158      105.55459
H         53.16696       15.87869      106.84483
H         53.04635       15.43099      105.10615
H         50.26927       14.53198      104.23844
H         51.58802       13.75177      105.20532
H         49.87643       13.36634      105.55397
N         49.23613       19.24532      107.74560
C         47.84556       19.66944      107.92158
C         47.37924       20.69979      106.88992
O         46.18156       20.91170      106.77590
C         47.61433       20.18394      109.36580
C         48.32927       21.51809      109.64558
O         48.05945       19.20000      110.26747
H         49.93390       19.53675      108.44254
H         47.21822       18.75567      107.81495
H         46.52086       20.33709      109.50700
H         47.81390       19.49982      111.18113
H         47.94904       22.31698      108.97782
H         48.13758       21.83173      110.69287
H         49.42259       21.43641      109.50113
N         48.27643       21.41070      106.14726
C         47.96964       22.40881      105.11763
C         47.18061       23.61503      105.64527
O         46.77242       23.61746      106.79902
C         47.26319       21.74095      103.90981
C         48.01254       20.48523      103.44847
O         47.20445       22.64347      102.83601
H         49.26838       21.22041      106.30097
H         48.94874       22.79198      104.75640
H         46.23297       21.44857      104.21649
H         46.44333       22.37181      102.26102
H         47.52237       20.06655      102.54533
H         49.07107       20.71750      103.21738
H         47.99696       19.70803      104.23721
N         46.94558       24.69755      104.83957
C         46.15360       25.85706      105.24003
C         47.01315       26.96877      105.82057
O         46.43449       27.91101      106.33133
C         45.38726       26.42743      104.02068
C         44.40469       25.43146      103.38808
C         43.78426       26.03229      102.11279
C         42.75009       25.11585      101.43616
N         43.34539       23.88464      100.91205
H         47.35960       24.71961      103.89875
H         45.42614       25.55520      106.02648
H         46.13167       26.73237      103.25462
H         44.82086       27.33809      104.31765
H         43.60470       25.19612      104.12369
H         44.94461       24.49926      103.12967
H         44.58691       26.27191      101.37992
H         43.27056       26.98093      102.38227
H         42.30011       25.67695      100.58663
H         41.93515       24.87027      102.15192
H         42.60603       23.33865      100.41315
H         44.10639       24.11380      100.23183
H         43.72199       23.29173      101.68440
N         48.37865       26.91838      105.81023
C         49.25680       27.94405      106.37607
C         49.29579       29.19232      105.48606
O         50.29585       29.42913      104.82191
C         50.66285       27.30769      106.57694
C         51.67817       28.10952      107.41865
C         51.17023       28.49511      108.79243
O         50.31578       29.35795      108.89994
O         51.65220       27.92892      109.91723
H         48.82508       26.07730      105.42909
H         48.88173       28.19354      107.38550
H         51.11715       27.06412      105.59005
H         50.51659       26.34466      107.10406
H         51.99413       29.03290      106.89069
H         52.57755       27.46324      107.52517
N         48.23600       30.04683      105.42039
C         48.19441       31.17007      104.50959
H         47.24720       31.73460      104.65273
H         49.04991       31.85259      104.69019
H         48.22157       30.80039      103.46175
H         47.42662       29.91820      106.03450
Ca        52.88781       26.07411      109.90862
O         49.18170       26.60411      111.40517
H         48.48025       26.33905      110.75899
H         49.44512       27.51423      111.12045
O         52.58266       27.82877      112.69395
H         52.08969       28.17183      113.48020
H         52.63723       28.60723      112.08596
O         51.00807       25.48814      113.94808
H         51.47251       26.00562      114.65254
H         50.11009       25.30690      114.32321
O         50.18446       23.40232      111.98217
H         50.31214       23.07861      111.05695
H         50.19487       22.58034      112.53367
O         52.96815       23.32566      112.98834
H         53.45225       23.44772      113.84330
H         53.57085       22.76873      112.43467

Ca 1.0



