%chk=apoCaM-CA-Ng.loop1.water3.frame956.chk
%nprocshared=20
%mem=10GB
%nosave
#b3lyp/svp scf=(tight,noincore,xqc) Test 
#IOP(5/87=12) Density=Current Pop=(MK,readradii) iop(6/33=2) iop(6/42=6)

apoCaM-CA-Ng.loop1.water3.frame956 

   0  1 
C         78.23234       65.46891       38.66630
C         77.65993       65.25850       40.03559
O         76.70554       64.50631       40.17306
H         79.29252       65.14022       38.65540
H         77.66822       64.88288       37.90948
H         78.17958       66.54491       38.39822
N         78.20143       65.90860       41.10357
C         77.71985       65.75136       42.46842
C         77.08145       67.02946       42.97363
O         77.73098       68.05785       43.04778
C         78.82193       65.20204       43.38913
C         80.14069       65.93143       43.56627
O         80.95942       65.40171       44.30051
O         80.50275       67.09808       42.97909
H         78.99029       66.54141       40.92885
H         76.92609       64.97290       42.49147
H         79.07719       64.18987       43.00499
H         78.37461       65.06940       44.39943
N         75.76492       67.02807       43.32097
C         75.04023       68.22679       43.71766
C         75.62387       68.83797       44.96744
O         75.66193       68.17766       45.99673
C         73.56121       67.88008       43.93048
C         72.68210       69.10078       44.27977
C         71.20505       68.68720       44.35071
C         70.60857       68.42924       42.95084
N         69.40189       67.61329       43.03964
H         75.24173       66.14011       43.25871
H         75.08781       68.95365       42.87673
H         73.46092       67.11909       44.73802
H         73.22218       67.41285       42.98835
H         72.81395       69.91739       43.53869
H         72.99556       69.47805       45.27823
H         70.59562       69.48096       44.83770
H         71.14382       67.78007       44.99026
H         71.30846       67.89279       42.28478
H         70.39319       69.40729       42.46316
H         69.66237       66.66797       43.40828
H         68.69407       68.05634       43.66627
H         69.00327       67.49035       42.08091
N         76.04624       70.13360       44.94871
C         76.52595       70.82565       46.13939
C         76.67868       72.33320       45.90868
O         76.80765       72.75621       44.76835
C         77.84215       70.20361       46.66954
C         78.91452       70.13134       45.61793
O         79.34433       71.14585       45.09448
O         79.41440       68.93420       45.25817
H         75.94950       70.65497       44.06555
H         75.71484       70.70570       46.88670
H         77.64598       69.17276       47.02740
H         78.22707       70.77747       47.53730
N         76.59143       73.24049       46.92950
C         76.35709       72.89872       48.32413
C         74.93869       73.22978       48.69787
O         74.03616       72.77889       48.00492
H         76.62748       74.24304       46.69233
H         77.10206       73.40848       48.97049
H         76.47682       71.82077       48.51741
N         74.65134       73.94055       49.82447
C         73.27614       74.18819       50.23937
C         72.70629       75.33784       49.43318
O         73.18028       76.45711       49.57362
C         73.21233       74.48014       51.75292
C         71.81194       74.62779       52.29607
O         71.63977       74.86638       53.60946
O         70.83196       74.52219       51.57435
H         75.42729       74.22428       50.44197
H         72.69139       73.25247       50.07926
H         73.78830       75.40276       51.97952
H         73.68839       73.63180       52.29145
N         71.71196       75.11907       48.53216
C         71.14303       76.16380       47.69884
C         71.64750       76.07109       46.27710
O         71.10284       76.75631       45.42390
H         71.38340       74.15369       48.37408
H         71.38524       77.18227       48.07190
H         70.03737       76.05305       47.72700
N         72.72010       75.28781       45.95631
C         73.26064       75.15518       44.61084
C         74.67324       75.72398       44.57456
O         75.20679       76.07320       45.61921
C         73.24805       73.65306       44.22440
C         71.84846       73.04464       44.35138
O         73.69124       73.47491       42.90304
H         73.20482       74.76303       46.69505
H         72.64295       75.73355       43.88940
H         73.90646       73.10045       44.94017
H         74.53245       72.94815       42.93665
H         71.13485       73.56596       43.68026
H         71.87880       71.97228       44.07758
H         71.48027       73.11125       45.39754
N         75.33997       75.86467       43.39163
C         76.71981       76.35156       43.31590
C         76.89598       77.79159       43.80718
O         78.04074       78.21696       43.90035
C         77.33084       76.17203       41.89186
C         76.60950       77.03492       40.82328
C         77.36515       74.67651       41.51346
C         77.32355       77.03271       39.46969
H         74.86008       75.57796       42.52916
H         77.32599       75.71406       43.99913
H         78.38929       76.51271       41.94922
H         76.58284       78.09099       41.16667
H         75.56297       76.69360       40.67993
H         77.90284       74.10011       42.29625
H         76.34391       74.25632       41.40744
H         77.91036       74.51157       40.56355
H         77.34205       76.02084       39.01814
H         76.78714       77.70533       38.76807
H         78.36456       77.40331       39.58624
N         75.84628       78.58306       44.18210
C         76.01578       79.90360       44.78588
C         75.21601       80.96886       44.05025
O         74.51358       80.65545       43.09690
C         75.63749       79.83050       46.29034
C         74.17532       79.43392       46.54122
O         76.48444       78.90370       46.92119
H         74.88545       78.22578       44.09777
H         77.08210       80.21845       44.74206
H         75.80623       80.83596       46.73820
H         76.51882       79.14618       47.88347
H         73.48397       80.15542       46.05887
H         73.96177       78.41456       46.16165
H         73.97484       79.43448       47.63337
N         75.27959       82.26673       44.46586
C         74.53201       83.36291       43.86498
C         75.50867       84.40516       43.34373
O         75.53840       84.63613       42.14362
C         73.51868       83.92185       44.90258
C         72.73088       85.12313       44.37323
O         74.16837       84.28455       46.09509
H         75.88830       82.49587       45.26608
H         73.93626       82.99757       42.99741
H         72.80110       83.09302       45.11466
H         73.52556       84.14225       46.83831
H         72.18846       84.85356       43.44359
H         71.99074       85.44702       45.13605
H         73.41093       85.97753       44.16770
N         76.33510       85.07488       44.19578
C         77.31433       86.06429       43.77473
C         78.68834       85.68538       44.28218
O         78.82714       85.32107       45.44211
C         76.95738       87.48188       44.27678
C         76.71483       87.60996       45.79138
C         76.67253       89.09076       46.19840
C         76.37937       89.29838       47.69232
N         74.99586       88.96105       48.03105
H         76.27774       84.87794       45.20290
H         77.35573       86.15342       42.66618
H         76.04366       87.84096       43.75408
H         77.79636       88.14986       43.97502
H         77.53582       87.14398       46.37070
H         75.76590       87.08922       46.03482
H         75.92545       89.65037       45.59572
H         77.67790       89.51974       45.98711
H         76.54440       90.37266       47.92905
H         77.08629       88.70168       48.31160
H         74.83268       89.17288       49.04153
H         74.34018       89.54245       47.45921
H         74.80374       87.94784       47.86994
N         79.77913       85.87961       43.49331
C         81.12847       85.74641       44.01527
C         81.45635       84.30662       44.39870
O         81.86176       84.10598       45.53455
C         82.15756       86.40067       43.06669
C         83.49663       86.65435       43.78023
C         84.41540       87.48447       42.93132
O         84.80305       88.70352       43.35622
O         84.81130       87.06626       41.85577
H         79.64539       86.24134       42.53602
H         81.17122       86.37584       44.93445
H         81.75667       87.40059       42.78524
H         82.30321       85.82099       42.13437
H         83.98811       85.69597       44.04886
H         83.30128       87.22280       44.71727
N         81.29658       83.23212       43.56958
C         80.73919       83.28565       42.23428
H         79.69681       83.66364       42.26452
H         81.35888       83.91107       41.56691
H         80.70244       82.26103       41.80561
H         81.55258       82.29923       43.92991
Ca        79.82008       68.75809       41.57460
O         77.77020       71.18633       41.66605
H         77.84228       71.42649       42.62338
H         76.90577       70.70909       41.59376
O         81.41042       71.81701       42.90522
H         81.53787       72.30694       43.75633
H         81.47681       72.51465       42.20586
O         82.23268       68.85036       44.45313
H         83.00421       69.43805       44.25779
H         82.62787       67.95146       44.58151

Ca 1.0



