%chk=apoCaM-CA-Ng.loop4.water6.frame1007.chk
%nprocshared=20
%mem=10GB
%nosave
#b3lyp/svp scf=(tight,noincore,xqc) Test 
#IOP(5/87=12) Density=Current Pop=(MK,readradii) iop(6/33=2) iop(6/42=6)

apoCaM-CA-Ng.loop4.water6.frame1007 

   -3  1 
C         23.70498       56.34334       30.32567
C         24.44845       56.94332       29.16426
O         25.30332       56.26972       28.61360
H         22.61642       56.30878       30.12690
H         24.06632       55.31156       30.52566
H         23.90091       56.95017       31.23590
N         24.21963       58.21537       28.72757
C         23.14430       59.05996       29.23802
C         21.77872       58.60104       28.72680
O         20.78031       59.13453       29.19070
C         23.34194       60.52641       28.79980
C         24.66144       61.07608       29.26100
O         24.95494       61.12719       30.57423
O         25.47118       61.48537       28.44529
H         24.84436       58.59009       27.99809
H         23.16776       59.03194       30.34973
H         22.53487       61.15831       29.23075
H         23.27945       60.59466       27.69070
N         21.65207       57.66276       27.73658
C         20.35682       57.25100       27.19369
C         19.60770       58.38081       26.49422
O         18.45181       58.15667       26.15138
C         20.49199       56.08688       26.15290
C         21.33759       56.51079       24.91389
C         21.03705       54.80814       26.80771
C         21.21228       55.55708       23.72789
H         22.49738       57.22360       27.35521
H         19.73228       56.89883       28.04526
H         19.46197       55.85052       25.80043
H         22.40716       56.62082       25.18700
H         20.98450       57.48989       24.53421
H         21.03056       53.96417       26.08864
H         22.07408       54.95054       27.17491
H         20.39048       54.51751       27.66245
H         21.80745       55.95482       22.87773
H         21.58837       54.54499       23.97078
H         20.15024       55.49446       23.40599
N         20.18798       59.57520       26.16954
C         19.49898       60.54448       25.31924
C         20.19507       61.90177       25.29781
O         21.30490       62.04431       25.79684
C         19.43152       59.95296       23.87778
C         18.64883       60.76786       22.89060
O         19.19624       61.22215       21.89816
O         17.33277       60.97878       23.08168
H         21.15228       59.76763       26.47331
H         18.48503       60.71306       25.74629
H         18.96381       58.94827       23.88688
H         20.47477       59.82771       23.50767
N         19.56161       62.96579       24.73113
C         20.14061       64.28812       24.59118
C         21.31796       64.29922       23.64250
O         21.76197       63.24960       23.19691
H         18.59893       62.84728       24.38451
H         20.43308       64.69475       25.58338
H         19.36325       64.95587       24.15974
N         21.84361       65.49277       23.25224
C         22.97474       65.61644       22.34138
C         22.52554       66.21353       21.01965
O         21.72096       67.13471       21.03126
C         24.05032       66.53760       22.93904
C         24.59994       66.01091       24.23022
O         24.49856       66.74724       25.35263
O         25.15921       64.92640       24.26569
H         21.40114       66.35957       23.59631
H         23.44060       64.62561       22.16745
H         23.62045       67.55051       23.10277
H         24.89134       66.63512       22.21710
N         23.05191       65.81579       19.82639
C         24.04855       64.76316       19.70557
C         24.49781       64.60819       18.27454
O         23.63492       64.42928       17.42748
H         22.73584       66.30643       18.97434
H         23.59674       63.80164       20.02986
H         24.90302       64.98340       20.36711
N         25.80553       64.60586       17.87930
C         26.99596       64.68716       18.72278
C         27.04099       63.58686       19.77970
O         27.47735       63.83088       20.89555
C         27.28385       66.11178       19.26113
C         27.50605       67.12036       18.11708
C         27.89095       68.50004       18.60229
N         28.14733       69.48050       17.70523
O         27.98228       68.74036       19.79785
H         25.98321       64.45170       16.87336
H         27.85878       64.45027       18.05831
H         28.22477       66.07437       19.85535
H         26.47042       66.46942       19.92294
H         26.58130       67.20202       17.50764
H         28.32984       66.75141       17.46692
H         28.08226       69.29769       16.69304
H         28.41671       70.42417       18.02170
N         26.68901       62.31429       19.43706
C         26.98115       61.13469       20.24915
C         25.74453       60.34862       20.65251
O         24.88714       60.08941       19.82163
C         27.94348       60.19157       19.46573
C         29.30528       60.86235       19.25579
C         27.38429       59.72640       18.10256
H         26.27210       62.16757       18.50902
H         27.51377       61.41997       21.18359
H         28.12238       59.28661       20.08926
H         29.20793       61.77289       18.62786
H         29.74644       61.14299       20.23569
H         30.00124       60.15558       18.75614
H         28.10968       59.06372       17.59971
H         26.44234       59.15484       18.21965
H         27.21183       60.57194       17.40807
N         25.68169       59.81342       21.90882
C         24.69150       58.82152       22.31828
C         25.36906       57.51102       22.74264
O         24.66463       56.62939       23.22216
C         23.76718       59.35999       23.43374
C         24.40906       59.50531       24.78979
N         25.34344       60.44846       25.04351
O         24.05104       58.76010       25.68676
H         26.42601       60.04621       22.58038
H         24.01321       58.58489       21.46991
H         22.94509       58.61727       23.53757
H         23.29432       60.31706       23.12796
H         25.63688       61.11979       24.32305
H         25.75640       60.52543       25.98374
N         26.71015       57.28712       22.57250
C         27.38594       56.06397       23.00119
C         28.65941       56.36336       23.78100
O         29.04637       57.51873       23.91189
C         27.64384       55.14983       21.77997
C         28.42418       55.78569       20.64930
C         29.76671       56.17706       20.80194
C         27.80103       55.96845       19.40308
C         30.46351       56.74965       19.73305
C         28.50050       56.53259       18.33641
C         29.83401       56.93120       18.49845
O         30.51680       57.48801       17.47784
H         27.28365       57.98417       22.07435
H         26.72848       55.48557       23.68859
H         26.64182       54.84958       21.40218
H         28.15315       54.21267       22.08885
H         30.28401       56.03779       21.73815
H         26.77023       55.67293       19.25237
H         31.49582       57.04927       19.86376
H         28.00051       56.66344       17.38508
H         30.11251       57.64040       16.61158
N         29.36178       55.33526       24.33143
C         30.60826       55.47302       25.07114
C         30.32928       55.02263       26.49181
O         30.80268       53.96913       26.90087
C         31.68346       54.60845       24.35584
C         33.10514       54.73665       24.93384
C         33.66228       56.12044       24.75590
O         34.04188       56.83982       25.82855
O         33.78964       56.59227       23.63677
H         28.98689       54.37793       24.22963
H         30.95921       56.52791       25.08734
H         31.72959       54.89239       23.28267
H         31.37522       53.53972       24.39611
H         33.77256       54.02856       24.39562
H         33.11709       54.45796       26.00787
N         29.50138       55.75520       27.29577
C         29.04055       55.22975       28.57406
C         27.95840       54.17159       28.35362
O         27.59115       53.51069       29.31500
C         28.46607       56.31316       29.51223
C         29.43467       57.44585       29.87032
C         28.87748       58.23394       31.03059
O         28.75380       57.68827       32.11620
O         28.50078       59.52189       30.90901
H         29.13907       56.65856       26.95798
H         29.91074       54.77579       29.09984
H         28.17348       55.79068       30.45077
H         27.56663       56.77863       29.07031
H         29.58614       58.09122       28.98013
H         30.41874       57.03682       30.18421
N         27.36718       53.98914       27.13232
C         26.30948       53.03140       26.88361
H         25.40250       53.57228       26.53780
H         26.63066       52.33034       26.08510
H         26.04488       52.44427       27.78674
H         27.64180       54.56763       26.32801
Ca        28.40599       60.70541       28.99431
O         27.89201       62.19927       32.25179
H         27.98966       61.40401       32.83357
H         28.61851       62.80665       32.54055
O         31.36190       60.91266       29.02885
H         31.16405       60.73565       29.98301
H         31.06514       60.09358       28.55795
O         29.53208       63.75392       29.82880
H         29.12822       64.65757       29.85544
H         30.17511       63.74788       30.58159
O         28.48845       62.88389       26.81869
H         28.68278       62.30731       26.03750
H         27.65958       63.36629       26.57264
O         26.37720       63.98952       29.72100
H         25.76302       64.47039       29.11115
H         26.44835       64.57392       30.51682
O         28.04618       59.26787       26.45894
H         28.99295       59.10980       26.70158
H         27.55113       58.51226       26.86471

Ca 1.0



