%chk=apoCaM-CA-Ng.loop4.water5.frame675.chk
%nprocshared=20
%mem=10GB
%nosave
#b3lyp/svp scf=(tight,noincore,xqc) Test 
#IOP(5/87=12) Density=Current Pop=(MK,readradii) iop(6/33=2) iop(6/42=6)

apoCaM-CA-Ng.loop4.water5.frame675 

   -3  1 
C        -22.71206       47.79534      100.96273
C        -23.07676       48.07311      102.39407
O        -23.35457       49.21307      102.73670
H        -21.68624       47.37432      100.90923
H        -23.42661       47.06157      100.53335
H        -22.75594       48.71597      100.34715
N        -23.11785       47.04298      103.28408
C        -23.50414       47.15683      104.68720
C        -24.91521       47.68294      104.83785
O        -25.14412       48.66887      105.52774
C        -22.50169       47.96622      105.52303
C        -21.15476       47.32172      105.57408
O        -20.08324       48.06352      105.28649
O        -21.01676       46.17590      105.97135
H        -22.89219       46.09775      102.93705
H        -23.51985       46.13177      105.12017
H        -22.86835       48.00796      106.57120
H        -22.41672       49.01068      105.14919
N        -25.93282       47.01563      104.23918
C        -27.33417       47.35860      104.45757
C        -27.69684       47.09225      105.92020
O        -27.12638       46.17106      106.48999
C        -28.26703       46.53737      103.50969
C        -28.20445       45.00700      103.79848
C        -27.93805       46.86615      102.03840
C        -29.14399       44.17034      102.93425
H        -25.68450       46.22037      103.63472
H        -27.46733       48.43192      104.21058
H        -29.31085       46.87330      103.69244
H        -28.50574       44.82592      104.85104
H        -27.17687       44.61185      103.66400
H        -27.99806       47.96213      101.86886
H        -26.92107       46.52174      101.75713
H        -28.66701       46.39333      101.35088
H        -29.08233       43.10879      103.25578
H        -30.19075       44.51957      103.05258
H        -28.84934       44.21327      101.86652
N        -28.67040       47.76097      106.60356
C        -29.40539       48.92552      106.12553
C        -28.46876       50.11787      106.08184
O        -28.33589       50.74611      105.04086
C        -30.59073       49.20913      107.07492
C        -31.44477       50.34896      106.59539
O        -31.99659       50.28934      105.50790
O        -31.62159       51.43344      107.37337
H        -28.88685       47.41646      107.55332
H        -29.83844       48.71146      105.12397
H        -30.21957       49.42652      108.10034
H        -31.23169       48.30184      107.12964
N        -27.73776       50.44227      107.18610
C        -26.72770       51.48093      107.19050
C        -27.28592       52.88230      107.20797
O        -28.49010       53.08383      107.28322
H        -27.82492       49.86004      108.03299
H        -26.05138       51.33819      106.32026
H        -26.11549       51.37982      108.11351
N        -26.40004       53.91438      107.18784
C        -26.74741       55.32463      107.33476
C        -27.67312       55.90625      106.26698
O        -28.04185       57.06055      106.43662
C        -25.44763       56.17986      107.42359
C        -24.49352       56.05495      106.25323
O        -23.36546       56.78941      106.24362
O        -24.69925       55.27417      105.33764
H        -25.40033       53.66251      107.13961
H        -27.28204       55.43796      108.30392
H        -24.88246       55.87774      108.33100
H        -25.72061       57.25081      107.54405
N        -28.10324       55.23012      105.15816
C        -28.93219       55.88807      104.14851
C        -28.17868       56.98324      103.39842
O        -28.79474       57.72064      102.64358
H        -27.83937       54.24737      105.00692
H        -29.82640       56.31705      104.65231
H        -29.28617       55.14804      103.39957
N        -26.82957       57.10991      103.53533
C        -25.96839       58.09109      102.89784
C        -25.98292       57.97738      101.38666
O        -25.96209       58.99146      100.70258
C        -26.20029       59.51951      103.43915
C        -26.01842       59.56165      104.96869
C        -26.12833       60.94070      105.56678
N        -26.00461       61.09687      106.90556
O        -26.32375       61.91813      104.85909
H        -26.33540       56.43492      104.11980
H        -24.92557       57.81961      103.18317
H        -27.21708       59.87794      103.16929
H        -25.44822       60.19689      102.97718
H        -25.01758       59.15559      105.23207
H        -26.79275       58.92790      105.43875
H        -25.84210       60.28176      107.51601
H        -26.07254       62.03122      107.33509
N        -25.93603       56.74468      100.80333
C        -25.68459       56.53676       99.37944
C        -24.45341       55.66391       99.15703
O        -24.05556       55.53526       98.00642
C        -26.90611       55.91309       98.65101
C        -27.26844       54.51610       99.18347
C        -28.12317       56.84162       98.71787
H        -26.05089       55.91965      101.40819
H        -25.46808       57.51442       98.89384
H        -26.64054       55.80389       97.57477
H        -27.57982       54.56007      100.24746
H        -28.10387       54.08989       98.58870
H        -26.40521       53.82352       99.08972
H        -28.96079       56.41093       98.12842
H        -28.45838       56.98254       99.76661
H        -27.87086       57.83206       98.28203
N        -23.82276       54.99959      100.17658
C        -22.68495       54.11650       99.96682
C        -21.50193       54.61429      100.78463
O        -21.66692       55.56141      101.54578
C        -23.10740       52.68483      100.36057
C        -22.18487       51.63280       99.81205
N        -22.09940       51.43770       98.47378
O        -21.53330       50.93545      100.57367
H        -24.15772       55.07722      101.14537
H        -22.40044       54.13197       98.89369
H        -24.11210       52.46100       99.93789
H        -23.19065       52.61971      101.46870
H        -22.66576       52.00304       97.82274
H        -21.48720       50.70652       98.08453
N        -20.25861       54.07265      100.64308
C        -19.10668       54.63446      101.35041
C        -17.78484       54.21560      100.70927
O        -17.78396       53.38325       99.81432
C        -19.16145       54.24744      102.85540
C        -18.28821       55.13502      103.70792
C        -17.15290       54.63392      104.36410
C        -18.61535       56.49450      103.84807
C        -16.34737       55.48373      105.12991
C        -17.81710       57.33963      104.62132
C        -16.67780       56.84126      105.25956
O        -15.91061       57.67465      105.99062
H        -20.13244       53.32894       99.94214
H        -19.16939       55.73791      101.22224
H        -18.88527       53.17326      102.95178
H        -20.19096       54.35030      103.25976
H        -16.88112       53.59534      104.26957
H        -19.49347       56.89876      103.35974
H        -15.46631       55.08751      105.61888
H        -18.08377       58.38433      104.72000
H        -15.10748       57.37524      106.43957
N        -16.61589       54.81008      101.08171
C        -15.32265       54.50994      100.48325
C        -14.33569       54.13203      101.58612
O        -13.54463       54.97715      101.98300
C        -14.86223       55.74509       99.67978
C        -13.56333       55.46996       98.90177
C        -13.14796       56.66767       98.10058
O        -11.95706       57.25234       98.33155
O        -13.87851       57.10930       97.22794
H        -16.63997       55.56185      101.78501
H        -15.39439       53.69237       99.73994
H        -14.73149       56.61839      100.35708
H        -15.66024       55.99639       98.94565
H        -13.71438       54.61164       98.21143
H        -12.74368       55.20916       99.60312
N        -14.31100       52.90423      102.17907
C        -15.13937       51.76970      101.79400
C        -14.78720       51.26122      100.41188
O        -13.61808       51.01920      100.14399
C        -14.95361       50.58544      102.75440
C        -15.41123       50.90605      104.17591
C        -15.64541       49.62210      104.89359
O        -14.74371       48.83956      105.14557
O        -16.92671       49.29298      105.08350
H        -13.64072       52.77129      102.95305
H        -16.21377       52.05544      101.84253
H        -13.90712       50.20816      102.76694
H        -15.61148       49.77343      102.36127
H        -16.40109       51.40515      104.10394
H        -14.72014       51.58094      104.72271
N        -15.77453       51.00116       99.51024
C        -15.53459       50.45024       98.19363
H        -14.45523       50.28973       97.99181
H        -16.05500       49.47244       98.10975
H        -15.94164       51.14099       97.42713
H        -16.75546       51.16152       99.77790
Ca       -17.97035       47.40261      105.55208
O        -16.43407       45.35343      103.21503
H        -15.68205       44.71000      103.18307
H        -16.75145       45.41025      102.27882
O        -18.48439       47.07165      108.44728
H        -19.05683       46.36876      108.04903
H        -19.01460       47.90296      108.35579
O        -15.41654       46.00361      106.63625
H        -15.06515       46.16706      105.72503
H        -15.62342       46.90552      106.98913
O        -18.28830       44.29702      106.17473
H        -19.02675       43.85899      106.66803
H        -17.93857       43.59324      105.57261
O        -18.47553       47.79061      102.17092
H        -18.63830       48.76625      102.21538
H        -19.06758       47.47219      101.44386

Ca 1.0



