%chk=apoCaM-CA-Ng.loop2.water3.frame766.chk
%nprocshared=20
%mem=10GB
%nosave
#b3lyp/svp scf=(tight,noincore,xqc) Test 
#IOP(5/87=12) Density=Current Pop=(MK,readradii) iop(6/33=2) iop(6/42=6)

apoCaM-CA-Ng.loop2.water3.frame766 

   -2  1 
C         83.90415        6.88764       -0.25924
C         84.78369        7.31746       -1.39009
O         84.27587        7.56213       -2.47555
H         82.84492        6.82862       -0.59101
H         84.22300        5.88905        0.10402
H         83.98037        7.62640        0.56499
N         86.13212        7.41605       -1.21347
C         87.01776        7.84705       -2.28519
C         86.73842        9.31277       -2.57621
O         87.08098       10.15356       -1.75574
C         88.49202        7.60166       -1.88727
C         89.45856        7.89720       -2.99829
O         89.39130        7.28316       -4.05129
O         90.43089        8.81189       -2.82181
H         86.53042        7.15482       -0.29785
H         86.80044        7.21391       -3.17524
H         88.61518        6.53102       -1.61188
H         88.74824        8.21217       -0.99328
N         86.03032        9.67644       -3.68423
C         85.64739       11.05609       -3.97977
C         84.12547       11.21422       -3.88319
O         83.44378       10.19953       -3.83016
C         86.15271       11.38192       -5.39147
H         85.70332        8.93617       -4.32497
H         86.12108       11.73978       -3.24989
H         87.25265       11.23962       -5.43561
H         85.67941       10.69636       -6.12816
H         85.93800       12.41369       -5.71123
N         83.47680       12.42270       -3.85095
C         84.11967       13.73643       -3.78635
C         84.85896       13.94053       -2.47166
O         84.72311       13.13287       -1.56190
C         83.09004       14.88197       -3.98794
C         82.08311       15.02453       -2.87037
O         82.03486       16.16603       -2.15680
O         81.29402       14.12896       -2.61742
H         82.44659       12.38899       -3.86282
H         84.83118       13.82136       -4.62280
H         82.55244       14.73196       -4.94884
H         83.64132       15.84364       -4.07200
N         85.64783       15.03822       -2.30180
C         86.32784       15.35334       -1.05692
C         87.38780       14.33769       -0.66791
O         87.58046       13.36556       -1.38413
H         85.74833       15.70646       -3.08089
H         85.57138       15.44284       -0.24821
H         86.83463       16.33539       -1.18142
N         88.16386       14.49565        0.44609
C         88.05923       15.61685        1.37475
C         87.83324       15.09305        2.78024
O         88.70111       14.40635        3.30304
C         89.34285       16.47169        1.33239
C         89.58869       17.06452       -0.03664
N         89.59531       18.40544       -0.22025
O         89.79417       16.32711       -0.98935
H         88.89306       13.78879        0.63309
H         87.21858       16.28725        1.10893
H         90.22678       15.86026        1.61759
H         89.23963       17.29110        2.07741
H         89.42753       19.05013        0.56544
H         89.76617       18.80244       -1.15626
N         86.68693       15.38362        3.46040
C         86.50537       14.94916        4.84089
C         85.15725       15.25691        5.47792
O         85.08437       15.10900        6.69125
H         85.97653       15.94935        2.98330
H         87.28835       15.46175        5.44355
H         86.66885       13.85347        4.92688
N         84.04868       15.65000        4.77805
C         82.77821       15.98969        5.42016
C         81.66339       15.05921        4.97574
O         81.88150       14.22868        4.10134
C         82.40785       17.45353        5.08316
C         83.46594       18.43657        5.58478
O         82.27335       17.60588        3.68987
H         84.07740       15.71891        3.75297
H         82.85895       15.88860        6.52518
H         81.45482       17.71543        5.60158
H         81.32348       17.82064        3.49834
H         83.15565       19.47419        5.33950
H         83.57968       18.34893        6.68573
H         84.44746       18.24246        5.10166
N         80.43201       15.13822        5.56212
C         79.29052       14.32745        5.15672
C         78.12654       15.24287        4.80630
O         77.62074       15.93755        5.67863
C         78.88542       13.31636        6.27520
C         77.63194       12.49774        5.84480
C         80.06960       12.38192        6.59029
C         77.11908       11.51539        6.89835
H         80.29524       15.80231        6.34091
H         79.55446       13.72138        4.26332
H         78.63505       13.88554        7.19811
H         77.84471       11.93699        4.90903
H         76.79274       13.19748        5.64865
H         79.82908       11.69699        7.42758
H         80.34002       11.77853        5.69734
H         80.95761       12.96585        6.90803
H         77.85504       10.71160        7.09839
H         76.88093       12.05124        7.84124
H         76.19237       11.03007        6.52350
N         77.61426       15.23233        3.54734
C         76.38808       15.90148        3.13717
C         75.33031       14.86685        2.74636
O         74.25020       15.27598        2.34565
C         76.68133       16.91433        2.00240
C         77.38592       16.28202        0.83632
O         78.52047       16.63093        0.55339
O         76.81503       15.27197        0.15608
H         78.08293       14.65832        2.83864
H         75.95065       16.48253        3.97878
H         77.33465       17.71232        2.42079
H         75.74044       17.39553        1.65961
N         75.53749       13.51640        2.89760
C         74.48985       12.52895        2.68371
C         75.09647       11.21249        2.18017
O         75.49369       10.40706        3.01082
C         73.72842       12.33286        4.01743
C         72.53680       11.41063        3.90571
C         71.45574       11.74250        3.06975
C         72.48057       10.22404        4.65853
C         70.34175       10.90160        2.98767
C         71.36411        9.38561        4.57244
C         70.29562        9.72434        3.73828
H         76.41328       13.17318        3.31025
H         73.75663       12.92675        1.95966
H         73.35622       13.31767        4.37473
H         74.44120       11.95837        4.78544
H         71.46918       12.65556        2.48862
H         73.29662        9.94820        5.31487
H         69.51153       11.16559        2.34533
H         71.32500        8.47466        5.15588
H         69.43052        9.07664        3.67599
N         75.19500       10.90353        0.84587
C         75.66311        9.62213        0.31551
C         77.01437        9.07638        0.76604
O         77.30452        7.94937        0.38556
C         75.72426        9.86682       -1.19565
C         74.56137       10.79905       -1.40584
C         74.70161       11.75284       -0.22295
H         74.88367        8.87325        0.58355
H         76.64629       10.44865       -1.43080
H         75.71483        8.94573       -1.81671
H         74.51159       11.29627       -2.39723
H         73.63636       10.19243       -1.26437
H         75.43990       12.56376       -0.40167
H         73.68905       12.16796       -0.03925
N         77.89882        9.76759        1.54321
C         79.14318        9.15428        2.01237
C         78.80421        7.98299        2.91261
O         79.22739        6.87330        2.61997
C         80.05652       10.14245        2.77573
C         80.77918       11.15780        1.86871
C         79.84411       12.10624        1.19882
O         79.78870       12.22931       -0.14160
O         79.11673       12.79855        1.88414
H         77.67674       10.73121        1.82055
H         79.73280        8.77858        1.14495
H         80.87019        9.55511        3.25650
H         79.49279       10.65394        3.58594
H         81.38592       10.62221        1.10785
H         81.47041       11.75693        2.50140
N         78.01950        8.15887        4.01299
C         77.63398        7.07780        4.89740
H         76.52867        6.97326        4.88738
H         78.07794        6.10489        4.59781
H         77.96541        7.31099        5.93013
H         77.65721        9.09982        4.22818
Ca        78.25494       13.77755       -0.70707
O         78.22041       16.78634       -2.81912
H         78.13521       17.37243       -3.61278
H         77.32703       16.81529       -2.39300
O         80.90115       15.19309        1.21996
H         81.09915       16.12493        1.48841
H         81.69455       14.67646        1.50673
O         77.31073       13.06085       -3.47877
H         77.52492       12.23040       -2.98389
H         76.38251       13.27670       -3.20994

Ca 1.0



