%chk=apoCaM-CA-Ng.loop2.water3.frame381.chk
%nprocshared=20
%mem=10GB
%nosave
#b3lyp/svp scf=(tight,noincore,xqc) Test 
#IOP(5/87=12) Density=Current Pop=(MK,readradii) iop(6/33=2) iop(6/42=6)

apoCaM-CA-Ng.loop2.water3.frame381 

   -2  1 
C          8.62343      100.16084       17.57308
C          7.42431       99.94578       18.45085
O          6.50077      100.74378       18.38095
H          9.39509       99.38015       17.73692
H          8.31403      100.13564       16.50712
H          9.07267      101.15171       17.79657
N          7.37017       98.88475       19.30751
C          6.24245       98.63078       20.20332
C          6.67926       98.67721       21.65882
O          7.86696       98.78997       21.92821
C          5.55039       97.30093       19.83078
C          6.39355       96.05564       19.97304
O          5.91487       94.97671       19.66355
O          7.65588       96.10070       20.44068
H          8.16761       98.23459       19.32542
H          5.48370       99.43419       20.08215
H          5.22009       97.37673       18.77174
H          4.64270       97.17221       20.45759
N          5.74878       98.64074       22.65985
C          6.09206       98.77115       24.07833
C          6.75505      100.11690       24.36342
O          6.92622      100.90278       23.44087
C          4.83913       98.57967       24.94044
H          4.75660       98.53667       22.39812
H          6.80926       97.96242       24.34407
H          4.08748       99.36576       24.71900
H          4.39384       97.58332       24.72950
H          5.09004       98.60967       26.02086
N          7.20234      100.43748       25.61475
C          8.06139      101.59331       25.86077
C          7.38073      102.67738       26.66831
O          6.91211      102.42875       27.77041
C          9.38507      101.14891       26.52286
C         10.19686      100.27694       25.59510
O          9.65371       99.86945       24.43176
O         11.35629      100.00489       25.86035
H          7.01010       99.80240       26.40384
H          8.36025      102.06115       24.89721
H          9.21039      100.63838       27.49493
H          9.98380      102.06751       26.71312
N          7.36819      103.94879       26.16826
C          6.81232      105.09177       26.87284
C          7.35417      106.44838       26.41320
O          6.82195      107.44144       26.88789
H          7.77911      104.09311       25.23950
H          7.04539      105.02106       27.95776
H          5.70775      105.05842       26.75726
N          8.42475      106.59212       25.56422
C          8.99243      107.88105       25.18103
C          8.96879      108.02278       23.66492
O          9.55742      107.20241       22.97354
C         10.43504      107.96164       25.72118
C         11.09171      109.29284       25.45454
N         10.59661      110.43042       25.99624
O         12.09512      109.34084       24.75898
H          8.92148      105.77172       25.19938
H          8.40935      108.70961       25.63729
H         11.03942      107.14657       25.26372
H         10.42540      107.79894       26.82098
H          9.76323      110.40924       26.60161
H         11.05737      111.33589       25.82231
N          8.28654      109.04746       23.08244
C          8.16997      109.23742       21.64382
C          9.47208      109.59325       20.95159
O         10.52617      109.61863       21.57135
H          7.78070      109.71280       23.68679
H          7.47318      110.08667       21.47029
H          7.72638      108.33246       21.17519
N          9.43139      109.94502       19.63475
C         10.59433      110.38794       18.86848
C         11.58195      109.25208       18.62305
O         12.75231      109.41993       18.93572
C         10.18130      111.11203       17.54810
C          9.39857      110.28286       16.51641
O          9.47172      112.29057       17.84755
H          8.50546      109.95961       19.18312
H         11.11802      111.18273       19.44882
H         11.12137      111.43204       17.04633
H          8.57447      112.03687       18.18687
H          9.97917      109.41175       16.17225
H          8.42785      109.93283       16.92038
H          9.19317      110.91299       15.62448
N         11.17961      108.06572       18.08148
C         12.08049      106.95517       17.77224
C         11.82285      105.81315       18.73791
O         10.68860      105.38392       18.89606
C         11.92936      106.53594       16.28117
C         12.46604      107.63003       15.31340
C         12.60190      105.18087       15.98021
C         13.97378      107.91579       15.41293
H         10.17418      107.92649       17.89890
H         13.13490      107.25043       17.92658
H         10.84541      106.39414       16.07052
H         11.93125      108.58300       15.48655
H         12.25113      107.31194       14.27029
H         13.68234      105.19455       16.22789
H         12.12552      104.36951       16.57033
H         12.47139      104.91974       14.90844
H         14.25487      108.31958       16.40582
H         14.57358      107.00667       15.20474
H         14.25307      108.68083       14.65936
N         12.87702      105.30060       19.43938
C         12.76734      104.30789       20.50222
C         14.12243      104.19993       21.21446
O         14.65205      103.11225       21.37790
C         12.30537      102.93511       19.94022
C         11.99164      101.93776       21.02313
O         11.99789      102.26856       22.19963
O         11.65158      100.67527       20.70866
H         13.81013      105.69449       19.24336
H         12.02806      104.69791       21.23666
H         13.10016      102.53171       19.27541
H         11.38198      103.04349       19.33579
N         14.76327      105.34279       21.59413
C         16.11978      105.42925       22.14024
C         17.09805      104.44710       21.47940
O         17.24175      104.49610       20.26431
C         16.63918      106.86668       21.86908
C         18.08908      107.07950       22.23371
C         19.06592      107.05959       21.22060
C         18.48218      107.30295       23.56190
C         20.41237      107.25007       21.53092
C         19.83323      107.51231       23.86645
C         20.79661      107.48169       22.85249
H         14.28408      106.23283       21.38508
H         16.07507      105.26295       23.23374
H         16.00560      107.63697       22.36105
H         16.53380      107.03860       20.77381
H         18.78653      106.88039       20.18934
H         17.74500      107.33162       24.35416
H         21.15548      107.21985       20.74418
H         20.13574      107.69959       24.88810
H         21.84106      107.63827       23.08830
N         17.87244      103.58456       22.21633
C         18.97318      102.81406       21.65386
C         18.53776      101.54989       20.93256
O         19.39022      100.91651       20.32592
C         19.83724      102.50168       22.88073
C         18.78442      102.30679       23.95390
C         17.82930      103.46107       23.66040
H         19.56916      103.43541       20.94815
H         20.56555      101.67184       22.75612
H         20.40216      103.42288       23.15448
H         18.26046      101.34789       23.73691
H         19.15667      102.27782       24.99980
H         16.81739      103.21065       24.04627
H         18.19379      104.41263       24.10532
N         17.25098      101.10429       20.95784
C         16.81432       99.93343       20.20639
C         16.93419      100.22310       18.72629
O         17.64322       99.50431       18.03481
C         15.36338       99.55060       20.56844
C         15.27648       99.04843       22.01953
C         13.87367       98.68680       22.40027
O         13.28852       99.29853       23.44683
O         13.26734       97.82319       21.78635
H         16.56290      101.60812       21.52918
H         17.45731       99.05938       20.46098
H         15.02845       98.72675       19.89916
H         14.68738      100.42035       20.41665
H         15.64181       99.82881       22.71969
H         15.91671       98.14696       22.13592
N         16.28466      101.28415       18.17444
C         16.39998      101.60878       16.77037
H         15.80409      102.51782       16.54239
H         17.46293      101.80754       16.51428
H         16.02106      100.76655       16.15381
H         15.70241      101.89157       18.77084
Ca        10.64599       99.66126       22.43662
O         10.78334       97.70967       19.98970
H         10.54612       97.33348       19.10533
H         10.21291       97.21710       20.63185
O          8.76615      101.68511       20.89543
H          8.96869      102.39701       21.55280
H          7.79442      101.52598       20.99250
O         10.06446       96.93663       23.81874
H          9.46658       97.05122       24.59974
H          9.57350       96.32197       23.21782

Ca 1.0



