%chk=apoCaM-CA-Ng.loop1.water4.frame686.chk
%nprocshared=20
%mem=10GB
%nosave
#b3lyp/svp scf=(tight,noincore,xqc) Test 
#IOP(5/87=12) Density=Current Pop=(MK,readradii) iop(6/33=2) iop(6/42=6)

apoCaM-CA-Ng.loop1.water4.frame686 

   0  1 
C        -13.19684       37.40767       66.41736
C        -14.64906       37.06740       66.53736
O        -15.23486       36.59057       65.57545
H        -13.04711       38.48775       66.62256
H        -12.62278       36.81076       67.15755
H        -12.82082       37.17255       65.39946
N        -15.29150       37.27772       67.71783
C        -16.67723       36.91379       67.95013
C        -17.54578       38.11684       68.25727
O        -17.24258       38.87503       69.16093
C        -16.77820       35.82521       69.02897
C        -16.32330       36.06245       70.45779
O        -15.72625       37.17850       70.93952
O        -16.50276       35.14679       71.24475
H        -14.75378       37.67908       68.49412
H        -17.10034       36.43300       67.04030
H        -16.22320       34.93612       68.65854
H        -17.84450       35.54078       69.06603
N        -18.69457       38.32203       67.55366
C        -19.63369       39.40097       67.85113
C        -20.09769       39.28755       69.29396
O        -20.15563       40.30836       69.96671
C        -20.82628       39.38780       66.86753
C        -20.35551       39.63813       65.41828
C        -21.49690       39.49963       64.40546
C        -20.95972       39.62558       62.97005
N        -22.01704       39.39399       61.98736
H        -18.93718       37.64595       66.81477
H        -19.12570       40.38453       67.72566
H        -21.54897       40.18925       67.14224
H        -21.34570       38.40774       66.93831
H        -19.58332       38.89273       65.14300
H        -19.89923       40.65050       65.33926
H        -22.27519       40.27148       64.59333
H        -21.95345       38.49298       64.52265
H        -20.15700       38.87037       62.81086
H        -20.52091       40.63672       62.81670
H        -22.76932       40.11250       62.08908
H        -21.60937       39.45801       61.02634
H        -22.42003       38.43691       62.11528
N        -20.35256       38.06911       69.86784
C        -20.65981       37.93761       71.29404
C        -19.45954       38.41925       72.15450
O        -18.39587       38.61510       71.58731
C        -21.15129       36.50776       71.64711
C        -20.14230       35.40793       71.48071
O        -19.75559       35.09079       70.37127
O        -19.73147       34.70042       72.55042
H        -20.30553       37.22740       69.27683
H        -21.53273       38.58910       71.45447
H        -22.03809       36.26401       71.02455
H        -21.50805       36.48326       72.68608
N        -19.50523       38.69187       73.49864
C        -20.65782       38.54255       74.36399
C        -21.82770       39.37335       73.91566
O        -21.67797       40.24718       73.07114
H        -18.64311       39.03959       73.94824
H        -20.40270       38.83260       75.40670
H        -20.93311       37.47718       74.41062
N        -23.05146       39.12668       74.44874
C        -24.26223       39.79340       73.99177
C        -24.80386       40.75238       75.02806
O        -25.75209       41.46048       74.71648
C        -25.30182       38.74410       73.53207
C        -25.81085       37.81368       74.61014
O        -26.60638       36.93736       74.31261
O        -25.41759       37.93081       75.89365
H        -23.12054       38.41356       75.18950
H        -24.03039       40.42349       73.10466
H        -24.83448       38.12571       72.73366
H        -26.17710       39.26586       73.08894
N        -24.24617       40.86570       76.26978
C        -24.70944       41.84613       77.22868
C        -24.31266       43.26072       76.85542
O        -24.76910       44.16725       77.53796
H        -23.48162       40.24272       76.56469
H        -24.26121       41.63787       78.22393
H        -25.81300       41.75520       77.32783
N        -23.43167       43.53631       75.84142
C        -23.00012       44.89386       75.51266
C        -21.52900       45.08729       75.83955
O        -20.84828       44.13031       76.18736
C        -23.32154       45.24495       74.03929
C        -22.55013       44.38599       73.02530
O        -24.70197       45.09808       73.82847
H        -23.00730       42.76125       75.31284
H        -23.54888       45.62160       76.15018
H        -23.03577       46.31079       73.87831
H        -24.93145       45.63573       73.02584
H        -22.81690       43.31338       73.11688
H        -22.79991       44.71490       71.99441
H        -21.45477       44.50358       73.16485
N        -21.00033       46.34219       75.82638
C        -19.64572       46.65651       76.26585
C        -19.76985       47.29393       77.63289
O        -19.21126       46.77309       78.58717
C        -18.92150       47.59942       75.26007
C        -18.92616       46.99734       73.83333
C        -17.48194       47.87883       75.74638
C        -18.35473       47.94627       72.77554
H        -21.62716       47.12770       75.59256
H        -19.04146       45.72595       76.36862
H        -19.47396       48.56406       75.21945
H        -19.97578       46.79023       73.53375
H        -18.36460       46.03828       73.81703
H        -16.89288       46.93665       75.77737
H        -16.96178       48.60474       75.09137
H        -17.48489       48.32509       76.76272
H        -17.27930       48.15210       72.94591
H        -18.45169       47.48257       71.77189
H        -18.91692       48.90503       72.77655
N        -20.55479       48.39638       77.79872
C        -20.82355       49.00730       79.09127
C        -20.44380       50.47432       79.07618
O        -20.01948       50.99102       78.05219
C        -22.31317       48.79113       79.47262
C        -23.30411       49.41160       78.47700
O        -22.55662       47.41094       79.56839
H        -21.02501       48.79838       76.97604
H        -20.21109       48.52492       79.88428
H        -22.48405       49.25869       80.46909
H        -23.33471       47.29326       80.17410
H        -23.13533       50.50439       78.38105
H        -23.21994       48.93676       77.47767
H        -24.34146       49.24997       78.83899
N        -20.57105       51.20136       80.21842
C        -20.23334       52.60915       80.32793
C        -19.11538       52.75697       81.33923
O        -18.07108       53.28829       80.98489
C        -21.50608       53.41948       80.68949
C        -21.23318       54.92288       80.79436
O        -22.06563       52.96294       81.89508
H        -20.91913       50.72781       81.06364
H        -19.86971       53.00679       79.35320
H        -22.22987       53.26011       79.85362
H        -23.05274       53.01604       81.80379
H        -22.18247       55.45996       81.00649
H        -20.51797       55.13840       81.61628
H        -20.81831       55.30814       79.83908
N        -19.26709       52.31135       82.61937
C        -18.26607       52.48888       83.65653
C        -17.91516       51.14147       84.26361
O        -18.81948       50.42550       84.67502
C        -18.85026       53.45009       84.70417
C        -17.76939       54.09748       85.57806
C        -18.40761       55.11312       86.53357
C        -17.34991       55.97994       87.22495
N        -17.98137       56.93967       88.13034
H        -20.15431       51.86781       82.89776
H        -17.35719       52.97060       83.23276
H        -19.63397       52.94326       85.31019
H        -19.33603       54.28751       84.15393
H        -17.07004       54.63640       84.89972
H        -17.19457       53.33696       86.14942
H        -19.02102       54.57001       87.28534
H        -19.07243       55.79541       85.95870
H        -16.77744       56.53731       86.44854
H        -16.64063       55.34088       87.79435
H        -18.66101       57.53924       87.60706
H        -18.47937       56.43143       88.89664
H        -17.24576       57.55302       88.54903
N        -16.62022       50.73538       84.37262
C        -16.24483       49.46257       84.98434
C        -16.35356       48.31208       83.98775
O        -17.13439       47.41249       84.26490
C        -14.86515       49.54542       85.67601
C        -14.90543       50.54537       86.84479
C        -13.55464       50.71590       87.47331
O        -12.97791       51.93286       87.49924
O        -12.97722       49.76274       87.97105
H        -15.88015       51.39695       84.09475
H        -16.95345       49.24047       85.81720
H        -14.07281       49.84395       84.96471
H        -14.59694       48.54466       86.08313
H        -15.62367       50.18741       87.61561
H        -15.24996       51.53688       86.48265
N        -15.64493       48.20577       82.82229
C        -14.69590       49.16204       82.29102
H        -13.70123       48.67754       82.19747
H        -15.03109       49.48398       81.28340
H        -14.58606       50.06763       82.90011
H        -15.79625       47.36246       82.24640
Ca       -14.90986       39.22639       70.38143
O        -17.17428       42.35455       70.51285
H        -17.31621       42.99735       71.25261
H        -16.98104       42.92316       69.72582
O        -15.06696       38.10896       73.69473
H        -15.33965       37.16444       73.57715
H        -15.64272       38.44190       74.42784
O        -14.66804       41.53380       68.60889
H        -13.94481       41.16589       68.04159
H        -15.05998       42.26748       68.07280
O        -16.26268       41.03494       73.20419
H        -15.91374       41.62529       73.91833
H        -17.24170       41.02171       73.35047

Ca 1.0



