%chk=apoCaM-CA-Ng.loop3.water3.frame658.chk
%nprocshared=20
%mem=10GB
%nosave
#b3lyp/svp scf=(tight,noincore,xqc) Test 
#IOP(5/87=12) Density=Current Pop=(MK,readradii) iop(6/33=2) iop(6/42=6)

apoCaM-CA-Ng.loop3.water3.frame658 

   0  1 
C         78.59076       58.90466       96.40645
C         78.29722       60.35297       96.65443
O         77.26343       60.66844       97.22731
H         79.53435       58.63128       96.92747
H         77.77495       58.26210       96.80029
H         78.70953       58.72400       95.31913
N         79.20866       61.29590       96.29214
C         79.05816       62.69890       96.64484
C         77.95143       63.36938       95.83908
O         78.05407       63.44334       94.62286
C         80.41884       63.41713       96.50813
C         80.48825       64.75266       97.19921
O         81.55154       65.34775       97.23489
O         79.41734       65.28363       97.81688
H         80.08841       60.97801       95.85542
H         78.81330       62.72085       97.71537
H         80.70121       63.50871       95.43873
H         81.18899       62.79363       97.00516
N         76.85867       63.88583       96.47249
C         75.75840       64.57425       95.80188
C         76.24198       65.81476       95.06607
O         75.83314       66.03741       93.93568
C         74.62672       64.92599       96.81065
C         74.95471       66.03882       97.82880
C         73.80403       66.21497       98.83641
C         74.02574       67.36942       99.83132
N         73.96592       68.68351       99.18546
H         76.79812       63.77287       97.48905
H         75.29758       63.87062       95.07266
H         74.34954       63.99371       97.35137
H         73.73257       65.25708       96.23708
H         75.10598       66.98208       97.26868
H         75.88186       65.79796       98.38971
H         73.71632       65.27115       99.41836
H         72.84231       66.38468       98.30532
H         74.99617       67.24234      100.35681
H         73.21897       67.32435      100.59628
H         73.04103       68.80933       98.71364
H         74.07274       69.42641       99.91357
H         74.73045       68.79971       98.48718
N         77.14445       66.64883       95.65576
C         77.63837       67.89099       95.07048
C         79.09850       67.78674       94.62571
O         79.61821       68.77737       94.13001
C         77.39703       69.05438       96.06445
C         77.97830       68.78524       97.42789
O         79.28866       68.54302       97.57463
O         77.25034       68.73040       98.40458
H         77.51475       66.37964       96.57722
H         77.07605       68.13615       94.14249
H         76.29891       69.19470       96.17668
H         77.81616       69.99853       95.65551
N         79.79646       66.61226       94.67437
C         81.11689       66.45049       94.07673
C         82.24442       67.22545       94.73636
O         83.31761       67.25045       94.15092
H         79.34008       65.76788       95.03743
H         81.04218       66.77158       93.01421
H         81.40136       65.37717       94.07274
N         82.10079       67.87733       95.92747
C         83.13054       68.74027       96.49987
C         83.59056       68.27632       97.88178
O         82.78358       68.19554       98.79578
C         82.55285       70.16827       96.60054
C         83.53796       71.21258       97.07993
N         83.12486       72.48665       97.26133
O         84.70392       70.92271       97.30585
H         81.20992       67.80354       96.42728
H         84.01113       68.78768       95.82253
H         81.68383       70.15420       97.29475
H         82.18674       70.48207       95.59860
H         82.14520       72.75096       97.08236
H         83.78370       73.20777       97.59030
N         84.91837       68.06682       98.11608
C         85.50238       67.87630       99.43661
C         85.07234       66.60682      100.12995
O         85.24080       65.53272       99.57105
H         85.57811       68.15069       97.32810
H         85.27139       68.76543      100.06447
H         86.60703       67.83348       99.32674
N         84.56744       66.66135      101.39801
C         84.17695       65.47981      102.17139
C         83.01228       64.76078      101.51913
O         82.51900       65.21767      100.49727
C         83.82663       65.89883      103.62160
C         85.06686       66.32393      104.37032
C         85.34169       67.67937      104.61245
C         85.96473       65.34764      104.83686
C         86.50539       68.05114      105.29514
C         87.11641       65.72010      105.53512
C         87.39535       67.07128      105.76105
O         88.51846       67.41460      106.42358
H         84.48487       67.58873      101.84278
H         85.02777       64.76346      102.20518
H         83.35813       65.07737      104.20479
H         83.08384       66.72149      103.58265
H         84.66737       68.44817      104.25739
H         85.76446       64.29587      104.67114
H         86.71477       69.10021      105.46088
H         87.79384       64.95704      105.89845
H         88.75539       68.33757      106.59246
N         82.55700       63.58461      102.04902
C         81.50730       62.75364      101.46312
C         80.16185       63.48201      101.49571
O         80.07481       64.62323      101.06920
C         81.91821       62.23587      100.04901
C         80.89254       61.23233       99.45321
C         83.32571       61.60208      100.07656
C         80.71136       59.91594      100.21725
H         83.01407       63.22157      102.89929
H         81.41841       61.85097      102.10359
H         81.96623       63.09818       99.35201
H         81.21470       60.96689       98.42343
H         79.90487       61.72462       99.38728
H         83.60996       61.24464       99.06395
H         84.08976       62.34380      100.38986
H         83.37246       60.75026      100.78645
H         79.96463       59.29080       99.68341
H         81.65864       59.34210      100.26388
H         80.33459       60.08463      101.24347
N         79.05247       62.85423      101.98027
C         77.73255       63.48576      102.06387
C         76.91926       63.03061      103.26937
O         75.81421       63.53442      103.42577
C         76.94044       63.22168      100.77370
O         77.44290       64.00926       99.73798
H         79.13732       61.85006      102.17947
H         77.84008       64.58712      102.17663
H         75.88027       63.52644      100.89878
H         76.93928       62.14141      100.49967
H         78.34893       63.67750       99.54371
N         77.36100       62.10046      104.16263
C         76.55281       61.66251      105.28989
C         76.34461       62.79820      106.28133
O         77.28512       63.54933      106.50040
C         77.24235       60.50610      106.01044
H         78.28442       61.66551      104.05034
H         75.59590       61.26188      104.89903
H         76.58203       60.14235      106.81802
H         77.41434       59.66529      105.30600
H         78.21574       60.82778      106.43956
N         75.19663       62.96574      107.00094
C         74.02438       62.10380      106.90912
C         73.22742       62.16177      108.20582
O         72.85009       63.25589      108.60259
C         73.13098       62.55155      105.74664
H         75.19152       63.72280      107.70339
H         74.34352       61.06475      106.72377
H         73.67319       62.50498      104.78195
H         72.24392       61.88534      105.67627
H         72.78224       63.59545      105.89980
N         72.87970       61.05276      108.92710
C         73.17453       59.67299      108.54062
C         74.62933       59.28050      108.78636
O         74.98930       58.16747      108.42596
C         72.26187       58.69149      109.31155
C         70.77377       58.91605      108.99469
C         69.91725       57.93369      109.73830
O         69.91992       57.91852      111.08510
O         69.20665       57.15169      109.12725
H         72.29814       61.20949      109.76556
H         72.93242       59.54040      107.46282
H         72.44258       58.79703      110.40453
H         72.51367       57.64872      109.01406
H         70.61289       58.79758      107.90001
H         70.45672       59.93926      109.28367
N         75.51937       60.10359      109.41169
C         76.87808       59.68331      109.69474
H         77.42853       60.49608      110.21291
H         76.86763       58.78587      110.34918
H         77.41909       59.43213      108.76073
H         75.23462       61.04157      109.72495
Ca        80.05274       67.72621       99.53306
O         80.60434       67.17526      102.38716
H         81.40560       67.74164      102.25486
H         80.62724       66.91809      103.34253
O         77.69584       67.28215      101.47283
H         77.07935       68.01018      101.73714
H         77.45224       67.07463      100.53599
O         80.41822       70.50238      100.39970
H         80.54450       70.07372      101.28350
H         81.33715       70.65505      100.06413

Ca 1.0



