%chk=apoCaM-CA-Ng.loop1.water4.frame174.chk
%nprocshared=20
%mem=10GB
%nosave
#b3lyp/svp scf=(tight,noincore,xqc) Test 
#IOP(5/87=12) Density=Current Pop=(MK,readradii) iop(6/33=2) iop(6/42=6)

apoCaM-CA-Ng.loop1.water4.frame174 

   0  1 
C         85.82427       28.27117       27.53898
C         87.11573       28.60806       26.85693
O         87.56661       27.82589       26.03337
H         85.01652       28.16763       26.78615
H         85.94412       27.30997       28.08277
H         85.53649       29.05326       28.27246
N         87.78607       29.75444       27.16428
C         89.07069       30.10169       26.56060
C         90.19366       29.12859       26.92926
O         91.28524       29.29703       26.40122
C         89.48208       31.55017       26.91752
C         89.79666       31.76920       28.37621
O         88.93929       31.61987       29.23156
O         91.03072       32.16605       28.74052
H         87.34752       30.40779       27.82874
H         88.93772       30.07513       25.45663
H         88.68006       32.25436       26.60604
H         90.38603       31.79869       26.32769
N         90.01472       28.09974       27.81423
C         91.06474       27.16760       28.20275
C         90.68850       25.74332       27.80543
O         89.58468       25.33950       28.14804
C         91.23908       27.15890       29.73787
C         91.56216       28.49551       30.41476
C         92.83614       29.16243       29.89288
C         93.23803       30.32910       30.80517
N         94.39707       31.04035       30.27230
H         89.09970       27.95990       28.26156
H         92.01903       27.46593       27.75042
H         92.05329       26.44369       29.98727
H         90.30627       26.77992       30.21140
H         91.69114       28.26680       31.49579
H         90.70949       29.20094       30.30934
H         92.64256       29.53405       28.86615
H         93.67359       28.43106       29.87107
H         93.48494       29.92765       31.81413
H         92.39134       31.04217       30.91056
H         94.13867       31.48916       29.36542
H         94.68123       31.78591       30.94804
H         95.19893       30.38369       30.13146
N         91.52691       24.85696       27.18243
C         92.88806       25.09334       26.70461
C         93.79407       25.63034       27.81049
O         94.29342       26.73795       27.69539
C         92.87248       25.92125       25.40950
C         92.09447       25.23193       24.30893
O         91.52449       24.16629       24.48719
O         92.00892       25.81713       23.11062
H         91.17122       23.89629       27.05439
H         93.32204       24.12497       26.37723
H         93.91792       26.03987       25.05653
H         92.44199       26.92782       25.57982
N         94.10266       24.89114       28.91150
C         93.71553       23.49721       29.01026
C         94.30667       22.76446       30.19209
O         94.84087       23.39278       31.09390
H         94.71012       25.31480       29.62922
H         94.14740       23.01285       28.11640
H         92.61223       23.38117       29.01696
N         94.31887       21.39830       30.23798
C         93.77209       20.53397       29.18742
C         94.88550       19.85732       28.40336
O         96.04593       19.97507       28.77694
C         92.76354       19.52994       29.77950
C         93.34454       18.52626       30.74719
O         92.60477       17.70974       31.27082
O         94.66048       18.49664       31.03615
H         94.79884       20.95805       31.03698
H         93.20258       21.12762       28.44778
H         92.28498       18.96585       28.95071
H         91.96872       20.10759       30.29994
N         94.59869       19.16454       27.26245
C         95.61095       18.51154       26.44511
C         96.63870       19.50443       25.96432
O         97.80588       19.35302       26.29615
H         93.61836       19.10756       26.94666
H         95.12836       18.03543       25.56460
H         96.10325       17.71526       27.04471
N         96.25903       20.57986       25.21963
C         97.17036       21.66359       24.86361
C         96.75180       22.90596       25.62580
O         95.63765       22.95310       26.12524
C         97.19636       21.87682       23.33449
C         97.79016       20.66321       22.61626
O         97.97636       22.99851       23.01058
H         95.26343       20.67633       24.96365
H         98.20166       21.42894       25.20837
H         96.14868       22.01251       22.96805
H         97.34602       23.72791       22.77729
H         97.78967       20.83670       21.51901
H         98.84016       20.50202       22.94494
H         97.20132       19.74697       22.82905
N         97.65648       23.89586       25.87313
C         97.38122       25.01135       26.77537
C         97.48067       26.37388       26.10542
O         97.18029       27.35493       26.77328
C         98.24534       24.88496       28.07132
C         99.77001       24.70198       27.85343
C         97.73960       23.69244       28.90393
C        100.45209       25.84160       27.10691
H         98.60304       23.80870       25.47491
H         96.32481       24.97776       27.10817
H         98.07682       25.79232       28.69348
H         99.97339       23.74920       27.31835
H        100.25406       24.62706       28.85245
H         96.66691       23.82292       29.13976
H         97.86493       22.73369       28.35696
H         98.28623       23.62619       29.86862
H        100.08741       25.90808       26.06470
H        100.28347       26.80365       27.63374
H        101.54367       25.64168       27.06378
N         97.83313       26.53156       24.79534
C         97.78013       27.83395       24.13149
C         96.34429       28.33908       24.14552
O         95.44699       27.60157       23.76421
C         98.37472       27.80850       22.69529
C         97.69405       26.85861       21.70103
O         99.75694       27.54988       22.74148
H         98.10957       25.70621       24.24987
H         98.42131       28.55159       24.69201
H         98.25874       28.83656       22.28624
H         99.88987       26.63711       23.10590
H         97.80728       25.80568       22.01398
H         96.61756       27.09486       21.58917
H         98.17355       26.96778       20.70535
N         96.06158       29.59171       24.59967
C         94.70296       30.09929       24.78892
C         94.34769       31.14679       23.75327
O         95.18838       31.49995       22.93767
C         94.55818       30.67809       26.23058
C         95.46885       31.88818       26.50428
O         94.84516       29.68506       27.17324
H         96.85309       30.21084       24.82225
H         93.96427       29.27643       24.66448
H         93.51711       31.03848       26.39355
H         94.07655       29.06284       27.14517
H         95.27885       32.70211       25.77429
H         95.27048       32.29335       27.51674
H         96.54201       31.61275       26.47043
N         93.10633       31.71885       23.76790
C         92.74104       32.85072       22.92445
C         91.44165       32.66320       22.14213
O         91.10860       33.56888       21.38992
C         92.72780       34.12758       23.79546
C         91.74447       34.09313       24.98249
C         91.79136       35.37328       25.83470
C         93.12100       35.54358       26.59596
N         93.10991       36.76308       27.40275
H         92.42970       31.40450       24.47841
H         93.52810       33.01951       22.15798
H         92.50064       35.00719       23.15536
H         93.75881       34.24828       24.18472
H         91.97141       33.24025       25.65183
H         90.71401       33.97193       24.58409
H         90.97576       35.31209       26.58851
H         91.59981       36.25575       25.18708
H         93.97647       35.60086       25.89223
H         93.27643       34.66494       27.26233
H         92.32105       36.73895       28.08867
H         94.01226       36.83468       27.92672
H         93.01426       37.59922       26.78155
N         90.65905       31.54665       22.23471
C         89.43440       31.38523       21.44751
C         88.24868       31.88490       22.23847
O         87.97971       31.37041       23.31571
C         89.21865       29.91269       21.06153
C         90.30977       29.40195       20.11044
C         90.20296       27.91894       19.97748
O         90.32366       27.21081       21.10684
O         90.06972       27.36762       18.89687
H         90.92063       30.79045       22.88443
H         89.50385       31.96096       20.49787
H         88.23537       29.78207       20.55564
H         89.20275       29.31281       22.00020
H         91.31114       29.60720       20.54611
H         90.23959       29.90901       19.12404
N         87.47943       32.89354       21.74603
C         86.32432       33.39824       22.45259
H         85.58100       32.58480       22.59282
H         86.63073       33.79996       23.44118
H         85.85164       34.21400       21.86512
H         87.71462       33.31706       20.83549
Ca        90.61227       25.05562       21.51934
O         87.37711       25.77200       21.14792
H         86.74126       25.48632       20.44503
H         87.51096       26.73929       20.98405
O         93.16547       24.29566       20.34704
H         92.43338       24.15691       19.69437
H         93.59711       25.13850       20.05849
O         88.65686       25.88329       23.91022
H         89.18849       26.67109       24.18830
H         88.41161       25.43422       24.75789
O         90.82228       22.04535       22.34490
H         90.61124       21.40902       23.07349
H         91.78073       21.89150       22.14936

Ca 1.0



