%chk=apoCaM-CA-Ng.loop2.water4.frame104.chk
%nprocshared=20
%mem=10GB
%nosave
#b3lyp/svp scf=(tight,noincore,xqc) Test 
#IOP(5/87=12) Density=Current Pop=(MK,readradii) iop(6/33=2) iop(6/42=6)

apoCaM-CA-Ng.loop2.water4.frame104 

   -2  1 
C         42.72601       35.06886      100.49631
C         43.56696       33.90368      100.07397
O         43.80354       33.74319       98.88429
H         41.80013       34.69221      100.97927
H         43.28635       35.70326      101.21304
H         42.44024       35.68527       99.61600
N         44.06115       33.03526      101.00438
C         44.84640       31.86757      100.62270
C         43.98727       30.76742      100.01889
O         44.55570       29.75809       99.63135
C         45.72438       31.34119      101.77726
C         44.99965       30.71712      102.93733
O         43.78149       30.64919      102.96934
O         45.71946       30.20002      103.95085
H         43.89195       33.22720      102.00319
H         45.58264       32.19344       99.85221
H         46.35593       32.17645      102.14985
H         46.40846       30.56910      101.35905
N         42.63156       30.89266       99.85847
C         41.84180       29.95347       99.07729
C         42.42283       29.93170       97.67912
O         42.39161       30.97646       97.04305
C         41.71975       28.58022       99.75389
H         42.13934       31.72865      100.20157
H         40.79952       30.33238       98.99983
H         41.08367       27.92080       99.12055
H         42.69992       28.08878       99.90877
H         41.21821       28.68839      100.73740
N         43.00492       28.81919       97.14402
C         43.58351       28.80265       95.81080
C         45.04872       28.40737       95.89376
O         45.51409       27.56506       95.13923
C         42.70477       27.88301       94.94395
C         41.30478       28.45662       94.93881
O         41.10695       29.63904       94.32084
O         40.40489       27.92050       95.56676
H         43.04033       27.93932       97.67564
H         43.57351       29.82358       95.36756
H         42.71181       26.87030       95.40354
H         43.08337       27.80875       93.90257
N         45.84167       29.02728       96.81104
C         47.27834       28.87388       96.91381
C         47.92501       29.55457       95.74401
O         48.86565       29.01875       95.17499
H         45.41445       29.70674       97.45030
H         47.58594       27.81037       97.03252
H         47.61772       29.42322       97.81935
N         47.42247       30.74685       95.30258
C         47.95656       31.44165       94.14376
C         49.29751       32.07426       94.50369
O         49.70259       31.98246       95.65702
C         46.92758       32.48859       93.64506
C         47.16007       32.86541       92.19862
N         47.45454       34.12971       91.82306
O         47.07275       31.99723       91.34332
H         46.58587       31.13498       95.76573
H         48.07586       30.68345       93.33814
H         46.91709       33.35715       94.33594
H         45.90792       32.04277       93.66818
H         47.54607       34.88333       92.50465
H         47.61031       34.35768       90.83124
N         50.04760       32.72859       93.57499
C         51.35487       33.29407       93.86845
C         51.38934       34.77477       93.60349
O         51.12384       35.18038       92.47916
H         49.70509       32.80054       92.60786
H         52.10175       32.80425       93.21168
H         51.65941       33.09854       94.91876
N         51.71953       35.64900       94.59954
C         51.82650       37.08914       94.39734
C         50.58835       37.81958       94.91321
O         50.49115       39.01463       94.70920
C         53.17153       37.62565       94.96104
C         53.25499       37.63248       96.49739
O         54.24791       36.90447       94.40867
H         51.88134       35.27558       95.54769
H         51.84249       37.30008       93.30447
H         53.29144       38.68385       94.64247
H         54.29932       36.02400       94.86697
H         54.25928       37.98993       96.81223
H         52.49524       38.32332       96.91853
H         53.09968       36.62137       96.92427
N         49.57401       37.13501       95.52660
C         48.24515       37.68770       95.81760
C         47.20248       36.81233       95.12836
O         47.59439       35.80435       94.57628
C         47.98034       37.70514       97.34389
C         48.11094       36.28381       97.96262
C         48.92657       38.70895       98.02113
C         47.55912       36.18619       99.37940
H         49.70732       36.14040       95.74035
H         48.14899       38.71818       95.41242
H         46.93998       38.06947       97.49117
H         49.17520       35.96215       97.95759
H         47.53117       35.54979       97.36306
H         49.98344       38.38047       97.92345
H         48.82333       39.70846       97.54618
H         48.68331       38.82486       99.09522
H         48.08797       36.86895      100.07151
H         46.47366       36.42353       99.37296
H         47.68865       35.14563       99.74600
N         45.85814       37.09076       95.16217
C         44.87607       36.18281       94.55949
C         44.08245       36.89417       93.46654
O         42.86818       36.78146       93.40620
C         43.99325       35.59240       95.68172
C         43.15306       34.42203       95.24908
O         43.20643       33.99531       94.10808
O         42.35403       33.81584       96.14535
H         45.52268       37.93880       95.63906
H         45.40374       35.33857       94.06956
H         43.34453       36.39264       96.10015
H         44.65129       35.22342       96.49766
N         44.74071       37.67259       92.56938
C         44.11509       38.44105       91.48798
C         42.98984       39.33741       92.00984
O         43.22704       40.04373       92.97184
C         45.21849       39.25592       90.75207
C         46.01897       40.16925       91.66974
C         45.49299       41.38589       92.14342
C         47.31132       39.78914       92.07805
C         46.22251       42.17698       93.03654
C         48.03588       40.58606       92.96558
C         47.49073       41.77260       93.45402
H         45.76041       37.73897       92.69015
H         43.69374       37.72394       90.75505
H         44.81015       39.82859       89.89243
H         45.90882       38.49459       90.32525
H         44.51568       41.72512       91.82915
H         47.75132       38.86193       91.73109
H         45.80258       43.10227       93.40853
H         49.01784       40.27935       93.28023
H         48.05385       42.37941       94.15139
N         41.73937       39.38520       91.44190
C         40.65369       40.24013       91.92239
C         40.22242       39.95784       93.35538
O         39.76217       40.87270       94.02369
C         39.49849       39.93514       90.96051
C         40.24031       39.62156       89.68073
C         41.37361       38.73882       90.19782
H         40.98335       41.29831       91.81329
H         38.98899       38.99218       91.26569
H         38.73796       40.74310       90.88804
H         39.62756       39.16703       88.87371
H         40.67897       40.57452       89.30148
H         41.02002       37.70714       90.41791
H         42.18316       38.73862       89.43722
N         40.32664       38.70331       93.88442
C         39.94415       38.35661       95.25898
C         40.80928       39.07204       96.30139
O         40.47699       39.00751       97.47668
C         40.05303       36.81946       95.45893
C         39.04106       36.04939       94.58437
C         39.39883       34.58920       94.42729
O         39.47003       33.74447       95.47679
O         39.63739       34.15710       93.31057
H         40.68762       37.96088       93.27017
H         38.88824       38.66887       95.41939
H         39.88800       36.52907       96.51979
H         41.08751       36.52879       95.18804
H         39.02436       36.48232       93.56255
H         38.02097       36.16764       95.00899
N         41.93044       39.76413       95.95622
C         42.75107       40.48580       96.90200
H         43.61585       40.94310       96.37039
H         42.16050       41.30109       97.36965
H         43.13969       39.79745       97.67981
H         42.23325       39.77945       94.98583
Ca        40.26400       31.63484       95.05101
O         38.93833       30.72804       97.27283
H         38.65297       29.78935       97.39914
H         38.10302       31.25797       97.29135
O         37.50671       31.41365       94.25924
H         37.39511       30.53999       94.71191
H         36.59520       31.66714       93.97039
O         40.03936       31.24877       92.05072
H         40.53023       31.88569       91.47325
H         39.36792       30.83281       91.45466
O         42.89937       30.86067       92.95073
H         43.86559       30.65736       92.93388
H         42.83912       31.83634       93.08508

Ca 1.0



