%chk=apoCaM-CA-Ng.loop1.water3.frame287.chk
%nprocshared=20
%mem=10GB
%nosave
#b3lyp/svp scf=(tight,noincore,xqc) Test 
#IOP(5/87=12) Density=Current Pop=(MK,readradii) iop(6/33=2) iop(6/42=6)

apoCaM-CA-Ng.loop1.water3.frame287 

   0  1 
C         54.60710       42.68592       58.43879
C         55.14967       44.03759       58.07943
O         56.05848       44.13054       57.26671
H         53.52658       42.64200       58.18257
H         55.13751       41.88305       57.88541
H         54.72532       42.51416       59.52924
N         54.60863       45.14744       58.64918
C         55.03246       46.50635       58.32326
C         56.40149       46.85864       58.91185
O         56.83981       47.97799       58.70090
C         53.99023       47.52990       58.83699
C         52.62305       47.32592       58.22861
O         51.92033       46.20001       58.45519
O         52.12818       48.20064       57.54159
H         53.82843       45.00904       59.30877
H         55.07004       46.61632       57.21687
H         54.33587       48.55356       58.56756
H         53.90724       47.47605       59.94373
N         57.12028       45.99219       59.68412
C         58.36059       46.35839       60.36796
C         59.51673       45.48754       59.92022
O         59.27536       44.31203       59.68111
C         58.15583       46.15731       61.87999
C         57.12039       47.14343       62.44287
C         57.06127       47.12064       63.97575
C         56.61533       45.76925       64.55172
N         56.56349       45.82588       66.01157
H         56.76034       45.04382       59.85642
H         58.61548       47.41369       60.18988
H         59.11415       46.31584       62.41006
H         57.85088       45.10730       62.07606
H         56.11662       46.93682       62.01204
H         57.41604       48.17470       62.14863
H         56.34315       47.90374       64.30194
H         58.06450       47.38281       64.37918
H         57.32737       44.96958       64.25616
H         55.60880       45.51213       64.15409
H         56.25497       44.89751       66.37977
H         57.51287       46.04275       66.39435
H         55.88360       46.55822       66.31987
N         60.82572       45.90011       59.86074
C         61.41925       47.22193       60.12214
C         61.17550       47.72157       61.54100
O         60.17946       48.38973       61.77346
C         61.10818       48.27902       59.04474
C         61.53719       47.81857       57.68398
O         62.10005       46.60447       57.52827
O         61.33281       48.52489       56.70992
H         61.50874       45.16789       59.60611
H         62.51387       47.09139       60.00729
H         61.66742       49.20746       59.28184
H         60.02994       48.51802       59.00968
N         62.04672       47.47403       62.56192
C         63.31164       46.78613       62.36004
C         64.13505       46.61813       63.61949
O         63.65756       46.92168       64.70333
H         61.79877       47.82623       63.49891
H         63.91105       47.41605       61.66752
H         63.13613       45.78093       61.91733
N         65.42948       46.18641       63.57024
C         66.14450       45.86773       62.33389
C         67.09304       47.00040       61.98187
O         67.20401       47.95598       62.73945
C         66.83610       44.48533       62.41461
C         67.92355       44.38424       63.45447
O         67.63640       44.48915       64.76552
O         69.07285       44.15571       63.11246
H         65.95562       46.17875       64.45548
H         65.44012       45.79985       61.48209
H         67.27906       44.25699       61.42072
H         66.07418       43.70237       62.61753
N         67.78191       46.98140       60.80659
C         68.66002       48.06159       60.39234
C         67.93708       49.34231       60.00085
O         68.63327       50.29094       59.66921
H         67.70198       46.16212       60.18641
H         69.23036       47.73559       59.49580
H         69.39342       48.26361       61.20359
N         66.57178       49.45377       59.97350
C         65.87754       50.66794       59.54434
C         65.04777       51.21807       60.68664
O         64.17682       50.52712       61.19779
C         64.99307       50.38862       58.31277
C         65.84610       49.96177       57.11612
O         64.29469       51.56047       57.97134
H         65.98658       48.65007       60.24128
H         66.60794       51.44970       59.24075
H         64.27503       49.57265       58.56929
H         63.41777       51.28225       57.59829
H         65.19624       49.77839       56.23697
H         66.57113       50.76291       56.85430
H         66.40715       49.03313       57.34613
N         65.29132       52.47982       61.13968
C         64.60225       53.07504       62.28111
C         63.11014       53.30093       62.05283
O         62.44252       53.61285       63.03141
C         65.27643       54.42216       62.71046
C         65.15907       55.50709       61.59819
C         66.73793       54.17896       63.13848
C         65.74297       56.86555       61.98634
H         66.04716       53.00766       60.68415
H         64.70202       52.36023       63.12914
H         64.74146       54.79654       63.61229
H         64.08577       55.67071       61.36978
H         65.65730       55.17970       60.66294
H         67.36909       53.84552       62.28967
H         67.18644       55.09940       63.56304
H         66.77631       53.40557       63.93442
H         65.26040       57.24714       62.91009
H         66.84007       56.80208       62.13496
H         65.56109       57.58970       61.16366
N         62.52257       53.24304       60.81696
C         61.10818       53.56395       60.60927
C         60.34880       52.45449       59.89986
O         60.95181       51.59888       59.26821
C         60.95293       54.90863       59.85596
C         61.59667       54.89862       58.46056
O         61.53123       55.92972       60.62732
H         63.10251       53.03315       59.99242
H         60.60933       53.69489       61.59478
H         59.86105       55.10880       59.74485
H         61.14685       56.78830       60.30930
H         62.69326       54.74072       58.52722
H         61.15155       54.10527       57.82529
H         61.42520       55.87688       57.96372
N         58.98940       52.41372       60.00042
C         58.14061       51.40209       59.36674
C         58.05478       51.62062       57.85391
O         58.68785       52.53281       57.34185
C         56.72901       51.39531       60.02949
C         55.90288       52.66363       59.77371
O         56.87915       51.20557       61.41537
H         58.54608       53.11545       60.61210
H         58.56801       50.39620       59.57179
H         56.15295       50.54026       59.60838
H         56.13784       50.61948       61.72116
H         55.73409       52.80801       58.68652
H         54.90998       52.55907       60.26082
H         56.39504       53.56710       60.18524
N         57.22263       50.85070       57.09010
C         56.98464       51.06929       55.66632
C         57.17070       49.79719       54.83258
O         56.97242       49.86329       53.62666
C         55.60991       51.76050       55.49708
C         54.37644       50.98630       55.99925
C         53.15738       51.93313       56.03071
C         51.86638       51.27579       56.54039
N         51.31830       50.31897       55.57824
H         56.65724       50.13029       57.55022
H         57.71660       51.80472       55.26603
H         55.45215       52.03795       54.43164
H         55.67872       52.70875       56.07686
H         54.53629       50.63238       57.03838
H         54.20765       50.10732       55.34347
H         52.97190       52.37815       55.02949
H         53.39894       52.76033       56.73554
H         51.10848       52.07424       56.70387
H         52.05124       50.78816       57.52267
H         50.44285       49.90484       55.97305
H         51.08015       50.81250       54.68748
H         51.99589       49.55089       55.37962
N         57.62169       48.62817       55.38277
C         57.93389       47.42642       54.60760
C         56.69803       46.84792       53.94237
O         55.75383       46.48277       54.62918
C         58.61928       46.37410       55.52304
C         58.93626       45.02056       54.84925
C         59.74680       45.10863       53.57522
O         59.19880       44.91651       52.50315
O         61.07344       45.33991       53.59082
H         57.82317       48.60084       56.39076
H         58.67762       47.69933       53.82748
H         57.95756       46.16146       56.39327
H         59.55382       46.81836       55.91477
H         57.96850       44.53245       54.61114
H         59.45662       44.35531       55.57382
N         56.66825       46.69156       52.58901
C         55.56407       46.06082       51.90013
H         54.62853       46.63411       52.06288
H         55.77633       46.01879       50.80958
H         55.43679       45.01988       52.26830
H         57.47270       47.00181       52.02321
Ca        62.11910       45.68793       55.51742
O         64.16964       45.39902       53.02026
H         64.59905       45.91786       52.29451
H         64.42766       44.45992       52.84185
O         65.83550       46.74470       55.87347
H         66.66222       46.62921       56.40616
H         66.04415       47.48682       55.25188
O         63.49408       48.33870       54.11081
H         62.55588       48.52852       53.85846
H         63.51749       48.47136       55.09123

Ca 1.0



