%chk=apoCaM-CA-Ng.loop2.water4.frame113.chk
%nprocshared=20
%mem=10GB
%nosave
#b3lyp/svp scf=(tight,noincore,xqc) Test 
#IOP(5/87=12) Density=Current Pop=(MK,readradii) iop(6/33=2) iop(6/42=6)

apoCaM-CA-Ng.loop2.water4.frame113 

   -2  1 
C         39.61458       49.01101       90.58158
C         40.31140       47.68503       90.49481
O         41.52650       47.65221       90.36026
H         39.07743       49.08960       91.54956
H         40.34128       49.84750       90.50190
H         38.87902       49.09927       89.75491
N         39.58533       46.53456       90.55869
C         40.17796       45.20505       90.45495
C         40.87556       45.05377       89.11897
O         42.04182       44.68901       89.10191
C         39.09340       44.12077       90.63497
C         39.67066       42.72808       90.66506
O         39.54263       41.97204       91.77233
O         40.24380       42.26994       89.68928
H         38.56307       46.61457       90.67930
H         40.91297       45.07123       91.28184
H         38.33289       44.18849       89.82754
H         38.58276       44.30042       91.60645
N         40.22311       45.35703       87.95856
C         40.82837       45.26575       86.63635
C         42.09960       46.10518       86.57993
O         42.00056       47.29786       86.83216
C         41.00380       43.79367       86.24409
H         39.25465       45.70710       88.01466
H         40.11651       45.69483       85.89559
H         41.68908       43.26338       86.93677
H         40.01633       43.28556       86.27232
H         41.39390       43.72097       85.20616
N         43.32195       45.56960       86.27641
C         44.54715       46.35548       86.24562
C         45.52184       45.81180       87.27211
O         46.64494       45.46510       86.92681
C         45.14075       46.33583       84.82184
C         44.18985       46.92665       83.82082
O         43.79302       48.20764       83.94033
O         43.77852       46.25115       82.89114
H         43.41254       44.56730       86.06112
H         44.35234       47.41510       86.52204
H         45.37943       45.28618       84.53677
H         46.08186       46.92713       84.79729
N         45.15679       45.72457       88.58400
C         46.08551       45.29047       89.61279
C         47.17879       46.31266       89.85414
O         48.11918       45.99700       90.56912
H         44.19949       45.98016       88.86378
H         46.52277       44.31395       89.30930
H         45.55146       45.14079       90.57588
N         47.11102       47.56966       89.31921
C         48.13963       48.58726       89.51245
C         48.28234       48.95845       90.97786
O         47.49876       48.50011       91.79934
C         47.77620       49.85356       88.70055
C         47.66539       49.55035       87.22546
N         46.48938       49.70369       86.57440
O         48.64669       49.15494       86.61512
H         46.29310       47.82618       88.74992
H         49.10920       48.18211       89.14797
H         48.53959       50.64817       88.83437
H         46.80856       50.24730       89.08248
H         45.65282       50.03032       87.07325
H         46.41073       49.48645       85.57030
N         49.27479       49.80495       91.37270
C         49.44394       50.23459       92.75104
C         49.29565       51.72718       92.86705
O         49.15846       52.40767       91.85788
H         49.93446       50.16943       90.66800
H         50.44828       49.93283       93.11721
H         48.68386       49.76817       93.41216
N         49.29377       52.31115       94.09874
C         49.15448       53.75421       94.27256
C         47.85203       54.29416       93.68404
O         47.78165       55.49743       93.48420
C         49.32618       54.19441       95.75013
C         48.23800       53.64426       96.68847
O         50.61046       53.86110       96.22025
H         49.41348       51.70176       94.92058
H         49.98415       54.22032       93.69320
H         49.25127       55.30329       95.78694
H         50.63187       52.88973       96.42047
H         48.24597       52.53527       96.71676
H         48.40688       54.02259       97.71830
H         47.23693       53.98046       96.35871
N         46.79686       53.48175       93.36339
C         45.62883       53.94772       92.61273
C         45.47779       53.12311       91.34018
O         46.24740       52.19608       91.12651
C         44.32763       53.94126       93.46697
C         43.89492       52.51841       93.89749
C         44.48286       54.89537       94.66325
C         42.50127       52.49181       94.53127
H         46.83202       52.48404       93.61788
H         45.78042       54.99614       92.28842
H         43.51717       54.36003       92.83245
H         44.63600       52.08109       94.59969
H         43.83990       51.86762       92.99866
H         43.52860       55.01655       95.21230
H         45.25178       54.52109       95.36558
H         44.78289       55.90535       94.30939
H         42.21875       51.44419       94.76394
H         42.46922       53.06994       95.47587
H         41.75202       52.90710       93.82223
N         44.49296       53.41566       90.44405
C         44.29055       52.67659       89.20575
C         44.48516       53.64158       88.05141
O         45.40474       53.46295       87.26523
C         42.88505       52.03270       89.21951
C         42.66427       51.14459       88.03249
O         43.34702       50.14526       87.88454
O         41.71083       51.43035       87.12913
H         43.86254       54.20647       90.64014
H         45.03781       51.85891       89.11699
H         42.09982       52.81652       89.25381
H         42.76877       51.41077       90.13372
N         43.65781       54.71537       87.92261
C         43.81640       55.78008       86.93550
C         42.56979       56.65526       86.94725
O         42.11607       57.00781       88.02517
C         45.12226       56.58582       87.18268
C         45.31003       57.12034       88.59168
C         44.50997       58.15480       89.11390
C         46.33203       56.58779       89.39886
C         44.70199       58.61256       90.42138
C         46.53095       57.06106       90.69674
C         45.70994       58.06313       91.21442
H         42.87309       54.78660       88.58636
H         43.89949       55.32313       85.92742
H         45.20536       57.41887       86.45195
H         45.96395       55.89765       86.95710
H         43.74250       58.62272       88.51812
H         46.97840       55.80238       89.02743
H         44.07271       59.39937       90.81735
H         47.32231       56.64459       91.30052
H         45.86102       58.41983       92.22525
N         41.91578       57.02433       85.80506
C         40.67424       57.78325       85.80371
C         39.53802       57.09510       86.54866
O         38.61937       57.78037       86.97442
C         40.32262       57.88265       84.31397
C         41.69208       57.91397       83.67328
C         42.42187       56.83049       84.46258
H         40.89352       58.78034       86.24817
H         39.84836       56.93117       83.97664
H         39.64755       58.72637       84.05665
H         41.71154       57.77656       82.57173
H         42.15160       58.90013       83.91884
H         42.15724       55.80590       84.12093
H         43.51459       57.01598       84.37281
N         39.49383       55.73363       86.67043
C         38.37386       55.02729       87.29312
C         38.30378       55.22142       88.80577
O         37.33935       54.75639       89.39903
C         38.43531       53.51416       86.97512
C         38.29994       53.24397       85.46642
C         38.28306       51.77272       85.17363
O         39.11722       51.28556       84.42859
O         37.32631       50.98795       85.70542
H         40.25250       55.17894       86.24736
H         37.42888       55.41788       86.85333
H         37.58773       53.00553       87.48632
H         39.38522       53.08216       87.36241
H         39.13645       53.71864       84.91065
H         37.34574       53.67818       85.09916
N         39.27139       55.87315       89.50844
C         39.19913       56.04603       90.94304
H         38.29350       56.63096       91.20961
H         39.16497       55.05552       91.44467
H         40.09569       56.59459       91.30364
H         40.09279       56.25216       89.02981
Ca        41.57259       50.07237       85.33392
O         44.28180       51.30005       84.54715
H         45.20851       51.34234       84.20196
H         44.35420       51.58643       85.49168
O         42.02677       50.72434       82.38104
H         41.45398       51.51255       82.20498
H         42.78263       50.81798       81.74855
O         39.35471       48.98854       87.03327
H         39.43334       48.09589       87.45153
H         39.04667       48.80089       86.11160
O         40.47651       47.97890       83.51346
H         40.84256       47.12059       83.18317
H         39.50059       47.82659       83.58034

Ca 1.0



