%chk=apoCaM-CA-Ng.loop3.water3.frame654.chk
%nprocshared=20
%mem=10GB
%nosave
#b3lyp/svp scf=(tight,noincore,xqc) Test 
#IOP(5/87=12) Density=Current Pop=(MK,readradii) iop(6/33=2) iop(6/42=6)

apoCaM-CA-Ng.loop3.water3.frame654 

   0  1 
C        -19.36009       66.58345       14.70656
C        -19.74806       67.97170       15.11653
O        -20.90942       68.20704       15.42047
H        -18.59241       66.19442       15.41032
H        -20.23744       65.90276       14.73249
H        -18.93922       66.59964       13.68091
N        -18.79763       68.94257       15.19246
C        -19.08483       70.27454       15.70104
C        -19.95280       71.07255       14.72749
O        -19.50929       71.33330       13.61777
C        -17.76442       71.00852       16.01576
C        -17.96610       72.21118       16.88402
O        -16.89906       72.91625       17.30411
O        -19.08221       72.52578       17.25982
H        -17.82238       68.68680       14.97097
H        -19.59752       70.13349       16.67011
H        -17.23634       71.28239       15.07725
H        -17.10533       70.33098       16.59573
N        -21.21582       71.46728       15.07050
C        -22.11608       72.17371       14.16066
C        -21.72911       73.63238       13.91831
O        -22.29590       74.23380       13.01684
C        -23.59286       72.02257       14.60846
C        -23.96943       72.68541       15.95323
C        -25.46066       72.48527       16.30700
C        -25.83588       71.01798       16.59851
N        -27.25983       70.88391       16.90558
H        -21.57871       71.17211       15.97687
H        -22.05540       71.64629       13.18286
H        -23.78965       70.93335       14.66654
H        -24.24846       72.44622       13.81688
H        -23.78165       73.77762       15.86988
H        -23.35194       72.29457       16.78722
H        -26.08716       72.87568       15.47625
H        -25.68716       73.08158       17.21836
H        -25.24522       70.65800       17.46507
H        -25.61021       70.37014       15.72757
H        -27.47139       69.87987       17.11038
H        -27.50964       71.45903       17.74217
H        -27.83171       71.18449       16.08302
N        -20.78074       74.26347       14.67084
C        -20.30092       75.62117       14.41820
C        -18.80456       75.59022       14.11552
O        -18.41093       76.05897       13.05600
C        -20.71004       76.61696       15.54366
C        -20.37025       76.32100       16.99306
O        -19.77746       75.16907       17.36287
O        -20.67403       77.14157       17.84223
H        -20.36198       73.74989       15.45220
H        -20.78617       76.04042       13.50631
H        -21.81634       76.72452       15.50068
H        -20.27487       77.60687       15.27742
N        -17.92182       75.00085       14.96804
C        -16.49922       74.85643       14.72739
C        -15.65263       75.44623       15.83872
O        -14.44324       75.28707       15.76405
H        -18.27002       74.56848       15.81902
H        -16.19459       75.31475       13.76276
H        -16.27867       73.76860       14.67128
N        -16.19058       76.15667       16.87883
C        -15.37397       76.78457       17.91870
C        -15.82555       76.40279       19.31844
O        -16.91010       75.87639       19.48071
C        -15.44278       78.31342       17.73105
C        -16.86308       78.83688       17.81879
N        -17.47683       79.35715       16.73033
O        -17.47004       78.77384       18.87727
H        -17.20648       76.32104       16.90836
H        -14.31352       76.46845       17.81425
H        -15.02784       78.53869       16.72475
H        -14.80821       78.83603       18.47852
H        -16.99419       79.40499       15.82155
H        -18.44912       79.69459       16.79110
N        -15.03132       76.67516       20.39116
C        -15.43144       76.47331       21.77660
C        -15.89570       75.06528       22.07472
O        -15.16007       74.12258       21.81705
H        -14.09526       77.07333       20.22209
H        -16.23923       77.19336       22.02592
H        -14.56379       76.70631       22.43147
N        -17.10580       74.86374       22.67982
C        -17.60461       73.54444       23.05970
C        -18.13260       72.74097       21.84412
O        -17.47729       73.06125       20.65135
C        -18.77217       73.68898       24.06837
C        -18.33646       74.22477       25.40744
C        -17.54799       73.43370       26.26167
C        -18.74682       75.49692       25.83427
C        -17.18456       73.90692       27.52628
C        -18.37206       75.97306       27.09388
C        -17.59647       75.18006       27.94639
O        -17.26036       75.64817       29.16535
H        -17.65497       75.69322       22.95270
H        -16.77529       72.97944       23.54375
H        -19.27552       72.72211       24.27428
H        -19.53706       74.35168       23.61269
H        -17.23364       72.44230       25.95794
H        -19.35638       76.12040       25.19261
H        -16.59009       73.28124       28.18069
H        -18.69325       76.95694       27.41065
H        -16.73927       75.12611       29.79197
N        -18.02526       71.29731       22.15002
C        -18.53867       70.32456       21.16610
C        -19.92994       70.70824       20.68799
O        -20.08117       71.76697       20.09674
C        -17.53675       70.07052       19.99693
C        -17.93618       68.84234       19.12469
C        -16.09233       69.90745       20.51082
C        -17.98203       67.49126       19.85642
H        -18.52474       71.10555       23.04700
H        -18.59913       69.36333       21.71714
H        -17.52835       70.95638       19.33095
H        -17.19919       68.74223       18.29916
H        -18.93088       69.01729       18.66746
H        -15.75459       70.83242       21.02364
H        -16.00258       69.06581       21.22693
H        -15.39895       69.73551       19.65914
H        -17.00428       67.24305       20.31737
H        -18.77007       67.47306       20.63485
H        -18.22306       66.68760       19.12949
N        -20.99560       69.88269       20.88587
C        -22.32876       70.19825       20.37866
C        -23.45928       69.72569       21.27545
O        -24.60666       69.89282       20.88755
C        -22.47074       69.58960       18.98133
O        -21.49771       70.11918       18.13481
H        -20.81285       68.94387       21.27117
H        -22.45761       71.30008       20.28156
H        -23.46995       69.79804       18.55074
H        -22.33955       68.48851       19.02706
H        -21.63426       71.10393       18.13095
N        -23.23388       69.14488       22.48581
C        -24.31440       68.69120       23.34570
C        -24.75476       69.80679       24.27408
O        -23.90840       70.59769       24.66674
C        -23.81581       67.51244       24.18014
H        -22.27434       69.05849       22.84525
H        -25.15462       68.30700       22.73298
H        -24.60744       67.18024       24.86615
H        -23.53351       66.66772       23.51580
H        -22.93818       67.80197       24.79529
N        -26.02456       69.91232       24.76846
C        -27.15250       69.05432       24.40857
C        -28.22529       69.13802       25.48662
O        -28.65086       70.24694       25.78270
C        -27.75865       69.51355       23.07582
H        -26.18541       70.65635       25.46658
H        -26.81767       68.01032       24.29578
H        -28.12059       70.56171       23.15177
H        -27.02092       69.46498       22.25219
H        -28.61763       68.86014       22.80922
N        -28.75802       68.05257       26.12480
C        -28.44334       66.64867       25.85914
C        -27.02016       66.30263       26.23199
O        -26.34165       65.69702       25.41517
C        -29.39517       65.70914       26.63016
C        -30.84770       65.84089       26.14184
C        -31.74623       64.86872       26.84848
O        -31.54877       63.66738       26.75502
O        -32.78766       65.31750       27.57430
H        -29.48340       68.25154       26.83166
H        -28.59824       66.42825       24.77817
H        -29.33389       65.90661       27.72345
H        -29.07124       64.65956       26.44598
H        -30.89478       65.63330       25.05042
H        -31.22096       66.87141       26.31617
N        -26.50948       66.63136       27.45134
C        -25.15152       66.32082       27.85495
H        -24.60534       67.26415       28.06601
H        -25.17260       65.70184       28.77550
H        -24.59099       65.76417       27.07403
H        -27.10103       67.14247       28.12322
Ca       -18.98096       74.26467       19.32648
O        -22.14796       73.92306       18.73046
H        -22.50197       74.59354       18.09416
H        -22.87767       73.79559       19.38687
O        -19.66306       77.18883       20.98652
H        -18.72551       77.50192       20.95020
H        -19.80915       76.75898       20.10902
O        -21.00437       74.38424       21.48390
H        -21.34245       73.60824       21.99730
H        -21.63350       75.11885       21.69289

Ca 1.0



