%chk=apoCaM-CA-Ng.loop1.water3.frame233.chk
%nprocshared=20
%mem=10GB
%nosave
#b3lyp/svp scf=(tight,noincore,xqc) Test 
#IOP(5/87=12) Density=Current Pop=(MK,readradii) iop(6/33=2) iop(6/42=6)

apoCaM-CA-Ng.loop1.water3.frame233 

   0  1 
C         37.63844        8.21570       95.81465
C         36.37873        7.73584       96.47246
O         35.85055        8.41678       97.33984
H         38.45717        7.48041       95.95401
H         37.44548        8.33721       94.72575
H         37.94790        9.19965       96.22443
N         35.80757        6.57713       96.05238
C         34.47807        6.15427       96.47120
C         34.47014        5.36260       97.76366
O         33.41375        4.87743       98.10530
C         33.84824        5.23927       95.39696
C         33.66924        5.91269       94.07022
O         34.63484        6.27209       93.41789
O         32.42947        6.09925       93.57976
H         36.27534        6.06344       95.28939
H         33.81156        7.04288       96.56307
H         32.83217        4.95116       95.73969
H         34.45756        4.31480       95.27660
N         35.55613        5.11488       98.52940
C         35.48104        4.10315       99.58401
C         35.43190        4.69778      100.97347
O         36.20802        5.61013      101.21872
C         36.65213        3.12803       99.40689
C         36.53064        2.37985       98.06457
C         37.55822        1.24460       97.94259
C         37.02626        0.14978       97.00258
N         37.93616       -0.99218       96.93488
H         36.46693        5.54104       98.29929
H         34.56774        3.49894       99.48144
H         36.58046        2.37854      100.22384
H         37.62681        3.65518       99.49108
H         36.60864        3.05998       97.18357
H         35.51198        1.93839       98.05375
H         37.70357        0.76769       98.93389
H         38.53873        1.65112       97.60298
H         36.85305        0.56065       95.98497
H         36.05077       -0.21165       97.40453
H         38.03130       -1.43198       97.87996
H         37.53641       -1.70211       96.27901
H         38.87350       -0.69085       96.58565
N         34.61709        4.23516      101.99044
C         33.58588        3.17083      101.98244
C         34.02664        1.82981      101.41575
O         33.63370        1.48306      100.31054
C         32.22773        3.66580      101.45359
C         31.66325        4.72889      102.36322
O         32.25903        4.99379      103.54762
O         30.66629        5.34997      102.03300
H         34.74819        4.69845      102.90262
H         33.32977        2.93660      103.03578
H         31.49018        2.83268      101.43973
H         32.34845        4.04974      100.42333
N         34.78369        0.96158      102.14132
C         35.16498        1.22316      103.52166
C         36.11892        0.19387      104.08382
O         36.59952       -0.65080      103.34235
H         35.03435        0.06315      101.70070
H         34.23992        1.21434      104.13467
H         35.65254        2.21638      103.59959
N         36.45903        0.17246      105.40444
C         35.89786        1.06652      106.41739
C         34.61438        0.47356      106.99504
O         34.36137       -0.70821      106.80445
C         36.97240        1.39809      107.48104
C         37.47506        0.17461      108.20534
O         38.47500       -0.40781      107.81277
O         36.83895       -0.26856      109.30529
H         37.07818       -0.59182      105.70998
H         35.61886        2.02923      105.93913
H         36.59987        2.13275      108.22565
H         37.83766        1.88061      106.97084
N         33.72376        1.25712      107.67188
C         32.46427        0.75263      108.21282
C         31.41926        0.31191      107.18013
O         30.38760       -0.17840      107.61612
H         33.95542        2.24933      107.83535
H         31.98957        1.55094      108.82642
H         32.68962       -0.09477      108.89678
N         31.57527        0.46647      105.82763
C         30.56490        0.06420      104.83497
C         31.12928       -0.98484      103.87226
O         32.23025       -0.80688      103.36825
C         30.05430        1.28714      104.01884
C         29.34462        2.32762      104.90285
O         29.15152        0.82521      103.03870
H         32.43199        0.91259      105.47718
H         29.67001       -0.37442      105.32642
H         30.92507        1.76712      103.52178
H         28.64854        1.59523      102.66466
H         29.05998        3.20706      104.28157
H         28.41370        1.89607      105.33004
H         29.99967        2.68232      105.71972
N         30.34482       -2.03871      103.47408
C         30.72328       -3.01696      102.44719
C         30.06805       -2.71537      101.10321
O         29.93619       -3.62532      100.29663
C         30.51354       -4.50491      102.91207
C         29.16425       -4.82789      103.62713
C         31.66030       -4.91709      103.84241
C         27.87444       -4.60964      102.83264
H         29.38520       -2.08514      103.84233
H         31.79934       -2.90058      102.18726
H         30.61747       -5.17224      102.02699
H         29.09256       -4.23973      104.56621
H         29.17639       -5.90281      103.91471
H         31.61839       -4.35522      104.79733
H         31.60361       -6.00796      104.05183
H         32.63927       -4.73012      103.35069
H         27.01754       -4.92479      103.47220
H         27.72673       -3.54173      102.57575
H         27.85228       -5.22949      101.91243
N         29.86926       -1.42393      100.70603
C         29.49848       -1.02737       99.34260
C         29.93134        0.39688       99.06927
O         29.77978        1.26407       99.92139
C         27.99499       -1.16214       98.99199
C         27.07794       -0.34455       99.90828
O         27.57448       -2.49843       98.90595
H         30.13778       -0.68520      101.36728
H         30.06926       -1.66425       98.63202
H         27.87371       -0.75361       97.96299
H         27.78391       -2.95166       99.75377
H         26.02123       -0.50297       99.61176
H         27.21210       -0.63776      100.96988
H         27.29448        0.74058       99.80411
N         30.51510        0.69467       97.87803
C         31.09178        1.99974       97.61813
C         30.02099        3.07629       97.41396
O         28.91911        2.77100       96.97851
C         32.11968        1.95765       96.43639
C         31.48500        1.89755       95.04106
O         33.07414        0.92006       96.55067
H         30.63724       -0.05992       97.18591
H         31.70010        2.25259       98.51462
H         32.68268        2.90161       96.48980
H         32.84485        0.29868       97.28757
H         30.91504        0.95931       94.88696
H         30.81542        2.76775       94.87819
H         32.28628        1.96078       94.27189
N         30.31951        4.37621       97.68543
C         29.47969        5.52684       97.34485
C         29.83658        6.76460       98.19189
O         28.93284        7.44571       98.65458
C         29.61344        5.81903       95.82901
C         28.51984        6.77759       95.32653
C         28.57567        6.99251       93.80336
C         27.37578        7.83389       93.33083
N         27.42564        8.07919       91.88881
H         31.21861        4.52870       98.12457
H         28.42192        5.26192       97.56562
H         29.49054        4.86581       95.27161
H         30.62796        6.21767       95.60646
H         28.60600        7.75935       95.83928
H         27.53585        6.32496       95.57695
H         28.53474        6.00867       93.28501
H         29.52833        7.49702       93.53152
H         27.35775        8.80959       93.86500
H         26.43606        7.28784       93.57279
H         28.25311        8.67440       91.65512
H         27.47967        7.17535       91.36566
H         26.55649        8.58356       91.59727
N         31.13643        7.08206       98.46548
C         31.59076        8.16703       99.32698
C         31.69481        9.44212       98.52686
O         32.21881        9.42256       97.42046
C         32.97250        7.81837       99.95028
C         33.54335        8.92893      100.85925
C         32.64910        9.27837      102.01670
O         32.37542        8.36065      102.94783
O         32.19092       10.40153      102.13668
H         31.86361        6.49940       98.06674
H         30.89907        8.28296      100.19091
H         33.71706        7.63923       99.14575
H         32.88258        6.87847      100.53990
H         33.73133        9.83766      100.25039
H         34.51968        8.59231      101.27178
N         31.22901       10.60420       99.05315
C         31.32162       11.87300       98.36975
H         30.73717       12.62855       98.93478
H         32.37902       12.21443       98.31778
H         30.89689       11.78718       97.34870
H         30.80055       10.59335       99.98878
Ca        31.87530        6.92107      104.54733
O         31.31232        8.16312      107.43731
H         30.41630        8.36753      107.80685
H         31.76852        7.65978      108.15784
O         30.15485        5.58876      106.39085
H         30.33406        4.72194      106.82986
H         29.78299        6.15345      107.11195
O         29.22332        7.47156      104.04797
H         28.45224        7.87732      104.51550
H         29.00155        7.52484      103.08504

Ca 1.0



