%chk=apoCaM-CA-Ng.loop1.water3.frame120.chk
%nprocshared=20
%mem=10GB
%nosave
#b3lyp/svp scf=(tight,noincore,xqc) Test 
#IOP(5/87=12) Density=Current Pop=(MK,readradii) iop(6/33=2) iop(6/42=6)

apoCaM-CA-Ng.loop1.water3.frame120 

   0  1 
C         59.50702       48.14117        8.22946
C         59.17206       47.75049        9.65142
O         59.66655       48.37309       10.57949
H         60.57221       47.91025        8.02124
H         58.89313       47.57405        7.49418
H         59.32948       49.22218        8.05361
N         58.38256       46.66420        9.87570
C         58.02841       46.11551       11.18957
C         58.79394       44.83557       11.51563
O         58.71358       44.36824       12.64423
C         56.51757       45.79735       11.24952
C         56.04001       44.90254       10.12087
O         55.65643       43.63978       10.37597
O         55.95674       45.32690        8.97806
H         58.09050       46.14990        9.03902
H         58.29816       46.83994       11.99173
H         55.92002       46.72971       11.23634
H         56.32567       45.27799       12.21133
N         59.56849       44.22878       10.58615
C         60.33633       43.01207       10.80465
C         61.80326       43.37788       10.90488
O         62.24452       44.19352       10.10741
C         60.09659       42.10125        9.58879
C         58.66924       41.53521        9.59058
C         58.35425       40.95533        8.21149
C         57.03310       40.17635        8.11877
N         55.87682       40.91842        8.62597
H         59.62205       44.63978        9.64437
H         60.02774       42.47294       11.71646
H         60.81069       41.25257        9.56090
H         60.27394       42.69658        8.66356
H         57.93641       42.34732        9.77681
H         58.57627       40.78151       10.40519
H         59.16940       40.27598        7.87795
H         58.32003       41.81561        7.50847
H         57.10917       39.20268        8.65267
H         56.88477       39.96343        7.03886
H         55.78004       41.82561        8.11746
H         55.01791       40.34302        8.46781
H         55.95640       41.08578        9.65548
N         62.67576       42.82294       11.80075
C         62.42501       41.82125       12.82904
C         61.74159       40.55144       12.30218
O         60.73611       40.13443       12.84740
C         61.76882       42.47016       14.06202
C         62.36358       43.80245       14.51023
O         61.65095       44.79144       14.47783
O         63.59544       43.94524       15.03729
H         63.65917       43.12438       11.73643
H         63.39314       41.47291       13.18292
H         61.79005       41.72830       14.88393
H         60.71837       42.69515       13.83750
N         62.21488       39.82822       11.25748
C         63.44172       40.10762       10.53620
C         63.54003       39.19217        9.34296
O         62.50630       38.87714        8.76751
H         61.65018       39.00924       10.97625
H         64.29730       40.00191       11.23420
H         63.44859       41.13393       10.11582
N         64.71738       38.80547        8.79341
C         66.04487       39.15852        9.28738
C         66.48072       38.29344       10.46328
O         65.77515       37.37369       10.85377
C         67.07850       39.10543        8.13233
C         67.16265       37.79182        7.38221
O         66.35333       36.75151        7.66655
O         67.97898       37.67296        6.48407
H         64.62968       38.29211        7.90806
H         66.02777       40.21409        9.64498
H         68.08485       39.33755        8.53334
H         66.83451       39.91055        7.40274
N         67.65318       38.58280       11.09800
C         68.14099       37.90783       12.28668
C         67.18677       38.08384       13.43749
O         66.89791       37.11805       14.12792
H         68.22815       39.36497       10.75065
H         69.10304       38.38621       12.57899
H         68.34342       36.83151       12.09657
N         66.67867       39.31379       13.71858
C         65.80244       39.56891       14.85360
C         64.47289       38.82781       14.72184
O         63.84741       38.86523       13.67268
C         65.57810       41.08174       15.05797
C         66.87996       41.81703       15.42717
O         64.64226       41.23474       16.09272
H         66.94007       40.10172       13.10407
H         66.30606       39.22536       15.77935
H         65.20272       41.52646       14.12052
H         64.44014       42.19292       16.17384
H         67.66823       41.63925       14.66868
H         66.68975       42.91161       15.49041
H         67.26763       41.48269       16.41126
N         63.98250       38.14737       15.79714
C         62.70906       37.43473       15.81864
C         61.76865       37.97911       16.89875
O         60.69211       37.41989       17.06634
C         62.96297       35.91431       15.95064
C         63.72339       35.51753       17.23725
C         63.64635       35.39009       14.67438
C         63.70771       33.99369       17.41719
H         64.53834       38.14416       16.66514
H         62.15632       37.56577       14.86230
H         61.96587       35.42453       16.00701
H         63.17821       35.95857       18.09697
H         64.77004       35.90042       17.27249
H         63.88686       34.31448       14.76003
H         62.95558       35.50819       13.81121
H         64.58021       35.94136       14.44872
H         64.48730       33.50356       16.79735
H         63.87880       33.73170       18.47930
H         62.71829       33.58147       17.11840
N         62.06094       39.11347       17.60419
C         61.08233       39.78987       18.44622
C         60.38494       40.76609       17.54304
O         61.03891       41.66892       17.06563
C         61.77863       40.49397       19.65147
C         62.57667       39.46896       20.47876
O         60.82408       41.17167       20.44465
H         62.92161       39.63207       17.38465
H         60.32912       39.07145       18.82971
H         62.50443       41.24527       19.26334
H         61.04462       41.06331       21.40964
H         61.88745       38.77934       21.00989
H         63.25292       38.88292       19.82361
H         63.20610       39.99401       21.22817
N         59.08070       40.60336       17.19386
C         58.39601       41.50081       16.26997
C         57.34633       42.28396       16.99273
O         56.67223       41.75194       17.86625
C         57.78746       40.78728       15.01390
C         58.17298       39.30439       14.90521
O         58.16119       41.46914       13.85123
H         58.56565       39.80111       17.57896
H         59.11731       42.25880       15.89209
H         56.67581       40.83462       15.02828
H         59.13063       41.34360       13.78451
H         57.71052       38.73809       15.73954
H         57.81243       38.86074       13.95386
H         59.27693       39.20066       14.95788
N         57.09414       43.55237       16.58268
C         55.97277       44.32244       17.07782
C         56.25167       45.79760       17.22315
O         55.37421       46.50904       17.69471
C         54.78373       44.07838       16.14399
C         54.92778       44.48389       14.65652
C         53.57753       44.26205       13.92714
C         53.04192       42.80742       13.99456
N         51.75820       42.64681       13.30160
H         57.60404       43.88207       15.75215
H         55.70443       43.96828       18.09912
H         53.91215       44.61970       16.55767
H         54.60873       42.98640       16.18483
H         55.74376       43.92297       14.14186
H         55.18572       45.56587       14.57880
H         53.69875       44.56575       12.86406
H         52.82980       44.93026       14.40255
H         52.87823       42.50622       15.04983
H         53.79133       42.11888       13.54854
H         51.53877       41.62551       13.23637
H         50.98552       43.10412       13.84021
H         51.79572       43.03889       12.33419
N         57.43150       46.34055       16.83216
C         57.67868       47.76284       16.81629
C         57.10971       48.32383       15.53514
O         57.32710       47.74755       14.47642
C         59.19613       48.01876       16.91725
C         59.75126       47.55299       18.27126
C         61.24347       47.77767       18.34800
O         61.69866       48.56303       19.16277
O         62.09120       47.02136       17.61216
H         58.16001       45.75378       16.41104
H         57.18565       48.25572       17.68465
H         59.39191       49.10825       16.82709
H         59.72550       47.49579       16.09133
H         59.54290       46.47459       18.44048
H         59.22691       48.11284       19.08118
N         56.35070       49.45026       15.56272
C         55.79703       50.03995       14.36566
H         54.88893       50.62171       14.62858
H         56.54745       50.71859       13.91050
H         55.50310       49.25673       13.63395
H         56.22448       49.95276       16.45429
Ca        63.61974       45.78652       16.39425
O         61.90197       44.50815       17.99218
H         61.29411       44.94014       18.63401
H         61.44529       43.67028       17.81795
O         63.13117       47.69379       14.70534
H         63.50216       47.54023       13.80189
H         62.40630       48.35528       14.59865
O         65.16603       48.12930       17.13436
H         64.63284       48.96314       17.10951
H         66.08011       48.41953       17.37804

Ca 1.0



