%chk=apoCaM-CA-Ng.loop2.water4.frame1209.chk
%nprocshared=20
%mem=10GB
%nosave
#b3lyp/svp scf=(tight,noincore,xqc) Test 
#IOP(5/87=12) Density=Current Pop=(MK,readradii) iop(6/33=2) iop(6/42=6)

apoCaM-CA-Ng.loop2.water4.frame1209 

   -2  1 
C         20.54537       87.17380      110.57451
C         19.04578       87.11871      110.41355
O         18.45678       88.18919      110.37766
H         20.98724       87.66008      109.67968
H         20.79360       87.80026      111.45969
H         21.03386       86.19451      110.71117
N         18.31296       85.96787      110.29744
C         18.84295       84.60568      110.21169
C         17.86610       83.59893      110.81576
O         16.88345       84.00197      111.42561
C         19.26870       84.27537      108.76136
C         18.13287       84.18859      107.78972
O         17.32490       85.24407      107.57712
O         17.96691       83.15924      107.15660
H         17.29556       86.08576      110.16755
H         19.75261       84.50922      110.83435
H         19.81036       83.30516      108.74363
H         19.98678       85.04125      108.40582
N         18.10686       82.25732      110.72061
C         17.34804       81.23597      111.42682
C         15.87011       81.15177      111.04698
O         15.14603       80.42638      111.71619
C         17.65471       81.34531      112.92657
H         18.91113       81.92538      110.17404
H         17.75103       80.24060      111.14160
H         17.19597       80.50935      113.49410
H         18.76017       81.25538      113.04818
H         17.34026       82.31466      113.36010
N         15.38289       81.74762      109.91324
C         14.05714       81.46172      109.35841
C         14.14766       80.95813      107.92105
O         15.23567       80.91659      107.36678
C         13.14765       82.68618      109.48423
C         13.65362       83.99162      108.90213
O         13.27001       85.01804      109.44112
O         14.43662       84.10701      107.79695
H         15.99242       82.37156      109.36824
H         13.57364       80.64187      109.93569
H         13.01589       82.84556      110.58269
H         12.12277       82.47687      109.10819
N         13.03204       80.48984      107.27879
C         13.04473       79.92887      105.92837
C         13.30655       80.94687      104.84203
O         13.35251       82.13171      105.12260
H         12.14665       80.44947      107.80252
H         12.07309       79.44579      105.70569
H         13.84072       79.15253      105.88617
N         13.57139       80.52184      103.56957
C         14.20490       81.38685      102.57119
C         13.50355       81.42420      101.20862
O         13.84549       82.28380      100.40699
C         15.65064       80.88325      102.43987
C         16.31612       80.84046      103.84065
N         17.42211       79.88767      103.87109
O         16.74637       82.11195      104.23519
H         13.51580       79.51088      103.37424
H         14.23726       82.42416      102.94112
H         16.26544       81.46919      101.72249
H         15.57635       79.84416      102.04012
H         17.08717       78.96617      103.49784
H         17.65491       79.70667      104.87286
N         12.55047       80.51409      100.85692
C         11.83219       80.50992       99.58510
C         10.71905       81.54022       99.55335
O         10.75492       82.47057      100.34703
H         12.33842       79.74241      101.50103
H         11.33246       79.52450       99.52042
H         12.51672       80.59039       98.71131
N          9.63652       81.43147       98.71898
C          9.43953       80.38247       97.70820
C         10.47831       80.47517       96.63068
O         10.98284       79.44774       96.19806
C          8.05891       80.47873       96.99475
C          6.93347       79.85867       97.82081
O          7.76284       81.81132       96.65628
H          8.90664       82.15573       98.81282
H          9.49430       79.37058       98.16569
H          8.10640       79.85923       96.06499
H          7.08221       81.78608       95.93411
H          6.81374       80.36266       98.79886
H          5.98241       79.91327       97.24785
H          7.15826       78.78028       97.98362
N         10.81337       81.68675       96.12386
C         11.75806       81.85423       95.03559
C         13.15011       82.11058       95.61060
O         13.23414       82.47991       96.77367
C         11.26655       82.97253       94.05682
C         11.04422       84.33509       94.77984
C          9.98033       82.54226       93.33250
C         10.71211       85.48131       93.83402
H         10.44229       82.51639       96.60138
H         11.81222       80.89400       94.48633
H         12.05006       83.09689       93.28507
H         11.96460       84.59069       95.33576
H         10.21133       84.29153       95.50923
H         10.11012       81.54335       92.86949
H          9.12108       82.51083       94.03593
H          9.74271       83.24937       92.51013
H         10.63208       86.43157       94.40308
H         11.51403       85.55078       93.08866
H          9.74622       85.33065       93.31372
N         14.31256       81.91845       94.91302
C         14.42152       81.38308       93.55929
C         14.51402       82.50539       92.56129
O         14.86789       83.62140       92.91674
C         15.67544       80.49039       93.42161
C         15.63612       79.24048       94.25908
O         16.58410       78.47192       94.22945
O         14.56920       78.94372       95.02658
H         15.19512       82.13886       95.39964
H         13.53569       80.77309       93.29236
H         16.57094       81.08591       93.70952
H         15.79820       80.17783       92.36143
N         14.17366       82.26496       91.26861
C         14.12784       83.30490       90.25872
C         12.79869       84.01555       90.35097
O         11.78921       83.32547       90.43076
C         14.25344       82.66892       88.85969
C         14.37445       83.70934       87.76912
C         13.24504       84.18888       87.07768
C         15.64284       84.21548       87.44153
C         13.39329       85.15385       86.07242
C         15.78564       85.17452       86.43687
C         14.66307       85.64281       85.75100
H         13.84436       81.31920       91.01221
H         14.99869       83.98248       90.38021
H         13.40745       81.97839       88.64768
H         15.17575       82.04868       88.84554
H         12.25382       83.82302       87.31590
H         16.52144       83.86509       87.96759
H         12.52608       85.52421       85.53988
H         16.76911       85.55296       86.19152
H         14.77946       86.38516       84.97156
N         12.67181       85.36838       90.22903
C         13.75328       86.31533       89.99496
C         14.52587       86.66609       91.25753
O         15.74741       86.62766       91.22851
C         13.02405       87.50238       89.35355
C         11.63767       87.47396       89.97043
C         11.36401       85.98065       90.08486
H         14.47826       85.96537       89.23279
H         13.55988       88.47383       89.39540
H         12.87482       87.23708       88.28219
H         11.69246       87.92182       90.97679
H         10.85476       88.02660       89.41070
H         10.67718       85.76688       90.93074
H         10.91901       85.58774       89.14480
N         13.88032       87.01828       92.39800
C         14.53123       87.47632       93.61458
C         14.84806       88.95558       93.43364
O         13.91263       89.74251       93.48677
C         13.55179       87.22628       94.78362
C         13.97759       87.75596       96.15088
C         12.94856       87.37506       97.18248
O         12.21786       88.32730       97.79320
O         12.75995       86.20090       97.46126
H         12.86329       86.98155       92.39637
H         15.41251       86.84456       93.83186
H         13.41858       86.12848       94.84443
H         12.57117       87.69461       94.54474
H         14.04027       88.86290       96.09512
H         14.96581       87.34835       96.44683
N         16.08371       89.45031       93.12522
C         17.30235       88.68797       92.93708
H         18.09745       89.10888       93.58441
H         17.21299       87.61659       93.17174
H         17.62423       88.77803       91.87713
H         16.16100       90.46592       92.95937
Ca        15.55660       83.13379      105.99567
O         12.95291       85.07128      105.60961
H         12.15759       84.51965      105.81084
H         12.59380       85.90606      105.21750
O         14.81304       84.76181      103.32561
H         13.83760       84.74396      103.15538
H         15.21941       84.67399      102.42728
O         15.34695       86.96247      106.00689
H         14.53335       86.77788      106.53815
H         15.35845       87.94792      105.91924
O         17.71147       84.93241      104.38807
H         17.59288       85.50197      103.58729
H         18.38586       84.26022      104.11660

Ca 1.0



