%chk=apoCaM-CA-Ng.loop2.water3.frame258.chk
%nprocshared=20
%mem=10GB
%nosave
#b3lyp/svp scf=(tight,noincore,xqc) Test 
#IOP(5/87=12) Density=Current Pop=(MK,readradii) iop(6/33=2) iop(6/42=6)

apoCaM-CA-Ng.loop2.water3.frame258 

   -2  1 
C         29.99620       28.78515       -7.87245
C         30.20372       27.50988       -8.63876
O         31.28652       27.30883       -9.16943
H         28.97253       28.84126       -7.44468
H         30.72929       28.84793       -7.04179
H         30.13830       29.65241       -8.55111
N         29.19801       26.59731       -8.74500
C         29.32219       25.35260       -9.49599
C         29.59580       25.64868      -10.95849
O         28.84739       26.40885      -11.55931
C         28.02559       24.52585       -9.36558
C         28.13536       23.20467      -10.07860
O         27.36672       22.93015      -10.98613
O         29.08339       22.31808       -9.71837
H         28.30261       26.80129       -8.27342
H         30.14943       24.74752       -9.06152
H         27.16800       25.10591       -9.77424
H         27.82503       24.32187       -8.29157
N         30.62716       25.03832      -11.61116
C         30.88063       25.26544      -13.02974
C         31.43285       26.65721      -13.27774
O         31.75718       27.36135      -12.33034
C         31.84290       24.20883      -13.58142
H         31.19707       24.34611      -11.10029
H         29.91637       25.15080      -13.57420
H         32.00025       24.35177      -14.67142
H         32.82380       24.26132      -13.06360
H         31.40873       23.19713      -13.42915
N         31.52473       27.12842      -14.55391
C         31.97873       28.46957      -14.88743
C         33.08471       28.38001      -15.92767
O         32.90202       28.83269      -17.05006
C         30.75130       29.27711      -15.36970
C         31.00938       30.75161      -15.50355
O         32.21273       31.26316      -15.20585
O         30.08356       31.50600      -15.75106
H         31.18884       26.53219      -15.32577
H         32.37699       28.98569      -13.98390
H         29.96483       29.18236      -14.58777
H         30.35238       28.86145      -16.31807
N         34.27762       27.80414      -15.60787
C         35.36846       27.64287      -16.55854
C         36.56361       28.49601      -16.20076
O         37.66473       28.16930      -16.62060
H         34.42886       27.47128      -14.64316
H         35.07165       27.90530      -17.59688
H         35.65853       26.57005      -16.57091
N         36.40853       29.66851      -15.52291
C         37.51630       30.56767      -15.21664
C         38.41056       29.92719      -14.17685
O         37.88420       29.46566      -13.17230
C         36.95831       31.92563      -14.73681
C         37.99648       33.02702      -14.66614
N         37.60787       34.30846      -14.47723
O         39.18339       32.78131      -14.81884
H         35.45680       29.95697      -15.24878
H         38.07271       30.78187      -16.15645
H         36.42446       31.82240      -13.76610
H         36.21920       32.24723      -15.49875
H         36.61270       34.54987      -14.39120
H         38.30134       35.06981      -14.45074
N         39.76726       29.87085      -14.33206
C         40.61770       29.17862      -13.37548
C         41.35353       30.11466      -12.44840
O         41.36558       31.32088      -12.65328
H         40.20986       30.33752      -15.13856
H         41.32117       28.49890      -13.90339
H         39.99553       28.53311      -12.72194
N         41.92771       29.58597      -11.33044
C         42.59345       30.36197      -10.28632
C         41.68736       31.46879       -9.75700
O         42.13517       32.60288       -9.67055
C         43.11179       29.44280       -9.13706
C         42.01925       28.73471       -8.31117
O         44.03645       28.50827       -9.64345
H         41.84217       28.56676      -11.20434
H         43.49758       30.84223      -10.72347
H         43.66830       30.08208       -8.41769
H         43.53865       27.73024      -10.00768
H         42.49278       28.10195       -7.53072
H         41.38614       29.47388       -7.78747
H         41.37735       28.08881       -8.94548
N         40.38039       31.21874       -9.45767
C         39.43316       32.24262       -9.01047
C         38.43022       32.53767      -10.11376
O         38.47915       31.90244      -11.15832
C         38.77426       31.85085       -7.64610
C         38.20126       30.40446       -7.64871
C         39.79655       32.06146       -6.51533
C         37.44733       30.02532       -6.37180
H         40.02222       30.26814       -9.62779
H         39.94995       33.21752       -8.87231
H         37.94175       32.55790       -7.44229
H         39.01904       29.66490       -7.76871
H         37.49859       30.29291       -8.50184
H         40.67404       31.39583       -6.63461
H         40.14880       33.11576       -6.52251
H         39.34114       31.89363       -5.51948
H         37.06987       28.98444       -6.46557
H         38.10989       30.05082       -5.48290
H         36.58499       30.70489       -6.21369
N         37.53670       33.56392       -9.96975
C         36.66116       34.01749      -11.04389
C         36.88745       35.50990      -11.33909
O         36.02499       36.14173      -11.93460
C         35.19044       33.72325      -10.67376
C         34.27130       33.81487      -11.86809
O         34.71127       34.02290      -12.98650
O         32.95931       33.57920      -11.74624
H         37.49604       34.07570       -9.07583
H         36.87394       33.44102      -11.96662
H         34.85624       34.39286       -9.85955
H         35.11062       32.67577      -10.31129
N         38.04722       36.13769      -10.98755
C         38.28751       37.55895      -11.23277
C         37.36660       38.40975      -10.35805
O         37.28409       38.13386       -9.17033
C         39.77659       37.89748      -10.98440
C         40.07955       39.34197      -11.31592
C         40.64226       39.68625      -12.55861
C         39.76857       40.36300      -10.40004
C         40.87145       41.02811      -12.88139
C         40.00858       41.70086      -10.72327
C         40.55443       42.03403      -11.96480
H         38.80321       35.58454      -10.55701
H         38.11575       37.76057      -12.31209
H         40.36303       37.24215      -11.66716
H         40.10436       37.66391       -9.94855
H         40.87968       38.92112      -13.28726
H         39.33761       40.12376       -9.43651
H         41.28817       41.28936      -13.84561
H         39.76308       42.47971      -10.01316
H         40.72937       43.07188      -12.21702
N         36.68056       39.49322      -10.84957
C         35.79787       40.34320      -10.05273
C         34.62964       39.58686       -9.46338
O         34.24451       39.84112       -8.33060
C         35.24697       41.34796      -11.07646
C         36.39352       41.46890      -12.04551
C         36.80496       40.00904      -12.19948
H         36.39401       40.87179       -9.27519
H         34.40992       40.89353      -11.65669
H         34.88391       42.29847      -10.62976
H         36.15616       41.98752      -12.99778
H         37.21362       42.01942      -11.52977
H         36.11228       39.44696      -12.86420
H         37.83382       39.99261      -12.60479
N         34.01007       38.64326      -10.22177
C         32.81751       37.90171       -9.83749
C         33.00376       37.23084       -8.49001
O         32.14121       37.38831       -7.63734
C         32.46419       36.86406      -10.92815
C         32.13223       37.51975      -12.28685
C         31.80435       36.48714      -13.32474
O         30.74828       35.67013      -13.15568
O         32.48365       36.39495      -14.33548
H         34.43611       38.43420      -11.13489
H         31.95585       38.60153       -9.75490
H         31.57873       36.27792      -10.59706
H         33.32025       36.17199      -11.05147
H         32.98721       38.11855      -12.66152
H         31.26389       38.20242      -12.17289
N         34.13032       36.51933       -8.20766
C         34.37526       35.89876       -6.91977
H         35.26747       36.36514       -6.45116
H         33.51889       36.01457       -6.22146
H         34.56569       34.81512       -7.06048
H         34.87061       36.44819       -8.91996
Ca        32.17641       32.95420      -13.74801
O         30.66898       34.79531      -16.35489
H         30.37778       35.73474      -16.23988
H         29.83433       34.29979      -16.54938
O         29.29645       32.91044      -12.98653
H         29.02546       32.03726      -13.36543
H         29.89740       32.67656      -12.23504
O         33.88883       33.89000      -16.56558
H         33.66857       34.40749      -17.38025
H         34.87710       33.84273      -16.56713

Ca 1.0



