%chk=apoCaM-CA-Ng.loop3.water5.frame360.chk
%nprocshared=20
%mem=10GB
%nosave
#b3lyp/svp scf=(tight,noincore,xqc) Test 
#IOP(5/87=12) Density=Current Pop=(MK,readradii) iop(6/33=2) iop(6/42=6)

apoCaM-CA-Ng.loop3.water5.frame360 

   0  1 
C         73.47519       87.87831       64.57907
C         74.29302       88.11585       65.81475
O         75.31599       87.46849       65.97599
H         72.56704       88.51798       64.56424
H         74.08135       88.09826       63.67672
H         73.15110       86.81616       64.55335
N         73.88443       89.02433       66.74563
C         74.55409       89.27469       68.01702
C         74.52531       88.01444       68.86892
O         75.55168       87.58335       69.37653
C         75.96744       89.86559       67.79372
C         76.61957       90.29238       69.08039
O         77.68463       89.80276       69.42172
O         76.03870       91.22808       69.85548
H         73.01652       89.55294       66.56700
H         73.95141       90.03971       68.55668
H         75.88325       90.76277       67.14395
H         76.61734       89.12735       67.27748
N         73.34028       87.36196       69.04726
C         73.18317       86.16828       69.87788
C         74.10499       85.01158       69.48384
O         74.26761       84.09778       70.28033
C         71.69511       85.73466       69.90250
C         71.16156       85.27189       68.52253
C         69.65901       84.92016       68.54687
C         68.70370       86.11705       68.75375
N         68.70586       87.03926       67.61422
H         72.50614       87.76185       68.59138
H         73.47452       86.46823       70.90888
H         71.10858       86.60574       70.26025
H         71.55842       84.90934       70.63472
H         71.72093       84.35709       68.23161
H         71.34611       86.02729       67.73319
H         69.49020       84.17879       69.35702
H         69.38550       84.43315       67.58530
H         68.94289       86.66518       69.68834
H         67.67247       85.71508       68.86747
H         68.01744       87.80565       67.79549
H         69.64633       87.47032       67.47590
H         68.41373       86.53454       66.74533
N         74.73671       84.98038       68.27775
C         75.69787       83.95450       67.88402
C         76.99720       84.12110       68.66876
O         77.46176       85.24364       68.81114
C         75.95555       84.06991       66.36784
C         76.76345       82.92247       65.83133
O         78.03561       82.75130       66.21611
O         76.27418       82.15230       65.02057
H         74.50626       85.70971       67.59100
H         75.25073       82.94707       68.04327
H         76.45747       85.03074       66.12355
H         74.96849       84.05395       65.85372
N         77.66014       83.03840       69.16796
C         78.91257       83.12291       69.91216
C         80.03704       83.76575       69.11999
O         80.57583       84.76641       69.57190
H         77.26025       82.10150       69.01215
H         79.23506       82.09764       70.19598
H         78.73970       83.69621       70.84899
N         80.44944       83.24117       67.92877
C         81.53008       83.82620       67.12595
C         81.21318       85.25648       66.68847
O         82.10769       85.92242       66.18195
C         81.78427       83.01669       65.81706
C         82.23667       81.55387       65.93575
N         83.55519       81.42154       66.53827
O         81.30508       80.74701       66.59176
H         79.97124       82.39729       67.59716
H         82.45164       83.84510       67.74719
H         82.56506       83.53337       65.21716
H         80.85641       83.01783       65.20978
H         83.49619       81.63979       67.55783
H         83.85585       80.42601       66.42960
N         79.94260       85.74898       66.73365
C         79.54021       86.99079       66.10440
C         78.94105       86.71512       64.73603
O         78.45368       87.64537       64.11461
H         79.17986       85.13814       67.04806
H         80.39590       87.69003       65.97981
H         78.79159       87.48832       66.75890
N         78.99400       85.46321       64.18138
C         78.48293       85.13311       62.86118
C         78.95004       83.73488       62.47232
O         78.58396       82.76920       63.12486
C         76.94401       85.20052       62.84531
C         76.37958       84.74314       61.52521
C         76.66465       85.44638       60.34529
C         75.57527       83.59223       61.46564
C         76.15111       85.00542       59.12289
C         75.06506       83.15220       60.24317
C         75.35094       83.85884       59.06650
O         74.86453       83.44571       57.87960
H         79.46379       84.70908       64.69166
H         78.90496       85.85799       62.13200
H         76.59047       86.22906       63.06380
H         76.56473       84.54402       63.65216
H         77.28639       86.33222       60.37232
H         75.34845       83.02951       62.36328
H         76.37924       85.55413       58.21860
H         74.45001       82.26164       60.21298
H         74.30568       82.65962       57.79996
N         79.79888       83.57706       61.42082
C         80.33011       82.29020       60.99402
C         81.70498       82.11687       61.61337
O         81.93862       81.07847       62.21847
C         80.30878       82.18297       59.43594
C         78.84697       82.31105       58.92598
C         80.92324       80.85022       58.96290
C         78.69795       82.26515       57.40251
H         80.14043       84.41907       60.93417
H         79.69935       81.45558       61.37850
H         80.91886       83.01228       59.01265
H         78.43282       83.28249       59.26345
H         78.22445       81.49936       59.36341
H         80.33748       79.98473       59.33619
H         80.98330       80.80400       57.85699
H         81.95891       80.74719       59.31643
H         79.00698       81.28291       56.99066
H         77.62950       82.40741       57.13523
H         79.29508       83.07191       56.92874
N         82.64615       83.10650       61.57871
C         83.94925       82.93962       62.21916
C         84.81490       81.94347       61.46329
O         85.80238       81.48199       62.01473
C         84.68705       84.27793       62.33661
O         83.90786       85.17831       63.07570
H         82.41366       84.00676       61.13240
H         83.77487       82.56141       63.25250
H         84.87157       84.68155       61.31509
H         85.65650       84.11943       62.86012
H         84.36756       86.05542       63.01608
N         84.49902       81.57857       60.18650
C         85.21812       80.60189       59.38566
C         85.20627       79.23518       60.05009
O         86.25231       78.60532       60.15116
C         86.63046       81.10442       59.04698
H         83.69158       82.01766       59.72835
H         84.66794       80.50092       58.42278
H         87.13555       80.39515       58.35779
H         86.56897       82.09374       58.54505
H         87.25156       81.21100       59.96046
N         84.04308       78.71893       60.54438
C         83.94470       77.40088       61.15955
C         82.84588       76.58068       60.51405
O         81.90000       77.14612       59.97815
C         83.68240       77.53167       62.65558
H         83.19121       79.29734       60.51051
H         84.90573       76.85243       61.04553
H         82.72827       78.06250       62.84113
H         83.63577       76.52377       63.12190
H         84.50970       78.10088       63.13009
N         82.95602       75.22149       60.47362
C         82.03046       74.32752       59.78400
C         81.76174       74.83917       58.37752
O         80.61071       75.00230       57.99471
C         80.73003       74.09941       60.59628
C         80.97777       73.53456       62.00726
C         81.70634       72.21863       61.98748
O         82.89783       72.10061       62.60431
O         81.22239       71.25199       61.42006
H         83.79646       74.79116       60.88986
H         82.53019       73.33933       59.68574
H         80.08342       73.38129       60.04266
H         80.17187       75.05524       60.69582
H         79.99848       73.38513       62.51226
H         81.55981       74.27096       62.60107
N         82.80974       75.17082       57.57335
C         82.65223       75.74786       56.25446
H         83.10805       76.76100       56.24651
H         83.17113       75.11186       55.50944
H         81.58683       75.84712       55.95815
H         83.77085       75.04917       57.92631
Ca        79.57408       80.53920       65.11389
O         77.08026       80.17185       62.56588
H         77.31994       79.33799       62.08940
H         76.16137       80.37599       62.25933
O         78.68096       79.96524       68.04867
H         77.79326       79.69863       68.39580
H         79.27246       79.20165       68.26423
O         79.97112       77.57855       65.72241
H         80.81912       78.02070       65.46591
H         80.10165       77.32883       66.67116
O         79.89432       78.63655       62.62846
H         80.17439       78.82243       61.69784
H         80.61323       79.02728       63.18384
O         76.49557       78.88987       65.90221
H         76.79553       77.97715       66.14220
H         75.82322       79.11926       66.59220

Ca 1.0



