%chk=apoCaM-CA-Ng.loop1.water3.frame175.chk
%nprocshared=20
%mem=10GB
%nosave
#b3lyp/svp scf=(tight,noincore,xqc) Test 
#IOP(5/87=12) Density=Current Pop=(MK,readradii) iop(6/33=2) iop(6/42=6)

apoCaM-CA-Ng.loop1.water3.frame175 

   0  1 
C         91.39941       34.81687       20.26369
C         91.79941       35.90347       19.30698
O         92.17752       35.59194       18.18681
H         90.53899       34.24922       19.85248
H         92.25494       34.12409       20.41065
H         91.11230       35.23008       21.25378
N         91.74015       37.21272       19.67965
C         92.16016       38.30380       18.80609
C         93.64080       38.18355       18.44345
O         93.97221       38.20667       17.26729
C         91.77727       39.69663       19.38921
C         92.21886       40.09575       20.78216
O         92.86740       39.25954       21.60961
O         91.92102       41.20592       21.19275
H         91.37917       37.43642       20.61933
H         91.58165       38.24408       17.85599
H         90.66636       39.75396       19.40335
H         92.14075       40.46803       18.67603
N         94.57442       38.01229       19.41382
C         96.01816       37.88237       19.20718
C         96.32589       36.63209       18.40288
O         95.83243       35.58130       18.78904
C         96.70096       37.84159       20.59246
C         96.56006       39.23038       21.25226
C         96.77219       39.20543       22.76278
C         96.56797       40.61887       23.33328
N         96.49598       40.59592       24.79151
H         94.22976       37.93289       20.37488
H         96.41266       38.77603       18.71851
H         97.78289       37.59576       20.52177
H         96.20879       37.04904       21.19953
H         95.53090       39.61807       21.10453
H         97.25481       39.94202       20.75254
H         97.78151       38.82279       23.02716
H         96.00428       38.52633       23.19461
H         95.61512       41.04973       22.94948
H         97.40201       41.27564       22.99818
H         96.38688       41.57541       25.14101
H         95.65815       40.04331       25.08892
H         97.36224       40.17500       25.19606
N         97.14485       36.59840       17.30185
C         97.93838       37.68884       16.72907
C         98.87427       38.32312       17.77316
O         98.79342       39.52947       17.96795
C         97.09023       38.79933       16.03259
C         96.22881       38.47373       14.84935
O         95.61949       39.39523       14.32959
O         96.10537       37.25205       14.30731
H         97.28491       35.67395       16.86267
H         98.58597       37.25564       15.93495
H         97.80692       39.56287       15.65708
H         96.42574       39.30604       16.74513
N         99.81295       37.63988       18.48996
C        100.06205       36.20814       18.43446
C        101.18391       35.86402       19.41689
O        101.04100       36.23781       20.57298
H        100.39100       38.20504       19.13395
H        100.29050       35.94131       17.38864
H         99.14870       35.66450       18.75140
N        102.34657       35.21900       19.09117
C        102.63132       34.56413       17.81920
C        103.56660       35.38121       16.95268
O        104.12202       36.37324       17.40568
C        103.15770       33.12757       18.06582
C        104.48898       33.03366       18.78209
O        105.18560       34.13176       19.13669
O        104.95088       31.93327       19.03752
H        103.06519       35.16015       19.82856
H        101.69784       34.44871       17.24329
H        103.26214       32.59977       17.09428
H        102.40037       32.58144       18.66945
N        103.73250       35.03120       15.64598
C        104.56712       35.75781       14.70322
C        104.09216       37.16664       14.37521
O        104.73411       37.79081       13.54250
H        103.24357       34.19319       15.29411
H        104.56692       35.19376       13.74330
H        105.61039       35.78611       15.08063
N        102.98325       37.72997       14.94136
C        102.45800       39.03921       14.56908
C        102.44349       39.96913       15.77519
O        101.91860       39.59052       16.81367
C        101.02618       38.86301       14.01014
C        101.01609       37.95584       12.77327
O        100.50670       40.11557       13.65378
H        102.43488       37.20441       15.63409
H        103.06707       39.50877       13.76476
H        100.39244       38.40811       14.80589
H         99.52791       39.99767       13.54047
H        101.40164       36.94450       13.01729
H         99.97751       37.84379       12.39901
H        101.63904       38.39928       11.96695
N        102.92604       41.24443       15.66870
C        102.80606       42.24519       16.73172
C        101.63585       43.18924       16.47004
O        101.41404       44.07487       17.28346
C        104.12707       43.05750       16.92813
C        104.51436       43.87754       15.66490
C        105.26555       42.13447       17.38616
C        105.64053       44.88496       15.90629
H        103.27060       41.55324       14.74775
H        102.56677       41.74866       17.69844
H        103.93962       43.78042       17.75430
H        103.64043       44.47638       15.33900
H        104.80610       43.20346       14.83254
H        105.51511       41.39385       16.59809
H        106.17545       42.71738       17.63465
H        104.96462       41.59391       18.30850
H        106.58740       44.38548       16.18980
H        105.82525       45.45850       14.97265
H        105.34656       45.60265       16.70207
N        100.83028       43.04954       15.37687
C         99.71203       43.92978       15.07998
C         98.43060       43.13410       15.13377
O         98.32162       42.13830       14.43234
C         99.87572       44.54527       13.66795
C        101.19052       45.31440       13.51026
O         98.78791       45.38551       13.36744
H        100.99869       42.28701       14.71130
H         99.65440       44.76425       15.81252
H         99.88581       43.72522       12.91558
H         98.78077       46.12075       14.03538
H        101.25429       46.13827       14.25198
H        102.05179       44.62972       13.64699
H        101.25353       45.74039       12.48699
N         97.38839       43.55945       15.90164
C         96.09384       42.89309       15.89247
C         95.09916       43.72710       15.11688
O         95.39756       44.84481       14.71816
C         95.58840       42.56998       17.32406
C         95.39455       43.81373       18.20167
O         96.48710       41.69350       17.94977
H         97.48692       44.43980       16.42699
H         96.16492       41.93078       15.33999
H         94.59653       42.06820       17.22455
H         95.95634       41.14576       18.58666
H         94.96843       43.51263       19.18205
H         96.36132       44.32258       18.39084
H         94.69280       44.53026       17.72576
N         93.89063       43.18599       14.82227
C         92.85261       43.89617       14.08694
C         91.80361       42.97853       13.44828
O         90.94589       43.52115       12.76373
C         92.24305       44.98894       15.00277
C         91.69665       44.42552       16.32946
C         91.34227       45.55318       17.31017
C         90.92049       44.98672       18.67437
N         90.66649       46.06114       19.63447
H         93.73193       42.23988       15.17006
H         93.32342       44.39717       13.21113
H         91.45306       45.56165       14.46920
H         93.05476       45.70661       15.24916
H         92.48504       43.81252       16.81464
H         90.81542       43.77608       16.13750
H         90.52909       46.18422       16.89043
H         92.24298       46.18860       17.46388
H         91.73294       44.33742       19.07288
H         90.00402       44.36806       18.55527
H         90.38325       45.64256       20.54999
H         91.53595       46.62493       19.78028
H         89.89785       46.68077       19.29049
N         91.80490       41.61013       13.56718
C         90.84701       40.74776       12.89932
C         89.93141       40.16357       13.95065
O         90.40500       39.45027       14.82568
C         91.56647       39.62263       12.10895
C         92.55495       40.15420       11.05990
C         93.01909       39.06227       10.11995
O         93.73525       37.98274       10.51746
O         92.72690       39.15291        8.93804
H         92.48172       41.10977       14.14818
H         90.23395       41.33322       12.17928
H         90.78020       39.02524       11.59671
H         92.12481       38.95648       12.80031
H         93.42541       40.64122       11.55074
H         92.02804       40.92360       10.45263
N         88.60287       40.46567       13.94541
C         87.67219       39.99340       14.94962
H         86.86441       39.41264       14.45910
H         88.15975       39.34949       15.71137
H         87.22409       40.86691       15.46882
H         88.22638       41.07967       13.20732
Ca        94.78026       37.43990       12.46356
O         97.41795       34.96286       11.84471
H         97.63341       34.23963       12.48593
H         98.28551       35.40807       11.67229
O         97.42197       38.50233       11.30207
H         97.99437       39.27988       11.52075
H         97.91908       38.01673       10.59674
O         92.21119       36.09901       13.22526
H         91.62936       36.55889       12.56914
H         92.42835       36.79321       13.89762

Ca 1.0



