%chk=apoCaM-CA-Ng.loop4.water4.frame119.chk
%nprocshared=20
%mem=10GB
%nosave
#b3lyp/svp scf=(tight,noincore,xqc) Test 
#IOP(5/87=12) Density=Current Pop=(MK,readradii) iop(6/33=2) iop(6/42=6)

apoCaM-CA-Ng.loop4.water4.frame119 

   -3  1 
C         33.37739       81.04279       17.82496
C         32.70255       82.23323       18.43345
O         33.21627       82.75030       19.40547
H         34.29931       80.78652       18.39380
H         32.69443       80.17034       17.83637
H         33.66940       81.28031       16.78068
N         31.56071       82.74378       17.88940
C         30.88492       83.95687       18.35267
C         31.79227       85.15848       18.17399
O         32.15743       85.80307       19.13995
C         30.17027       83.78320       19.72483
C         30.94705       83.40423       20.96617
O         31.73504       84.27720       21.62879
O         30.72095       82.32379       21.48806
H         31.17383       82.27540       17.05603
H         30.03422       84.15111       17.66022
H         29.42623       82.97189       19.55705
H         29.58857       84.70259       19.95233
N         32.18647       85.47839       16.90159
C         33.09308       86.54332       16.46185
C         32.50365       87.94482       16.61570
O         32.26513       88.56788       15.58907
C         34.52179       86.36970       17.03924
C         35.54124       87.39963       16.47126
C         35.01095       84.93361       16.77117
C         35.79893       87.30919       14.96052
H         31.83365       84.86964       16.14592
H         33.19742       86.39438       15.36336
H         34.48693       86.52332       18.13891
H         36.51622       87.24918       16.98401
H         35.19983       88.42909       16.70750
H         36.04226       84.80632       17.12476
H         34.37858       84.19469       17.30031
H         34.98700       84.68769       15.68987
H         34.87697       87.50386       14.37739
H         36.54985       88.07313       14.66989
H         36.20983       86.31718       14.68124
N         32.22297       88.51635       17.82313
C         31.59826       89.83035       17.92507
C         32.53453       90.94350       17.46204
O         32.15272       91.61861       16.51578
C         30.99474       90.08053       19.32404
C         29.85755       89.12793       19.59841
O         28.88133       89.10785       18.86482
O         29.89552       88.30917       20.66349
H         32.41263       88.00655       18.69018
H         30.71667       89.84638       17.24111
H         30.57592       91.10987       19.36015
H         31.75175       89.98074       20.12194
N         33.75705       91.23817       18.00271
C         34.40244       90.53657       19.11029
C         35.79759       91.09180       19.42227
O         36.21820       92.02678       18.75540
H         34.25584       92.02188       17.55592
H         34.50352       89.47100       18.83252
H         33.77931       90.64583       20.00670
N         36.63167       90.58842       20.38800
C         36.37809       89.49720       21.32039
C         36.04526       88.20011       20.59633
O         34.90823       87.75665       20.67579
C         35.35176       89.91903       22.39787
C         35.30401       88.93942       23.54121
O         34.14335       88.35599       23.88468
O         36.31175       88.69413       24.18595
H         37.56370       91.02662       20.46830
H         37.31278       89.32920       21.89910
H         34.33738       90.03998       21.97896
H         35.66961       90.89587       22.82227
N         36.97485       87.47579       19.90667
C         38.39809       87.76305       19.85130
C         38.77085       88.87212       18.90520
O         37.91938       89.42604       18.22627
H         36.66992       86.59112       19.48178
H         38.92029       86.86226       19.46235
H         38.79016       87.94609       20.87282
N         40.08866       89.18098       18.76138
C         40.59914       90.14920       17.80036
C         41.22858       89.41922       16.61426
O         41.57340       90.07194       15.63949
C         41.59335       91.07570       18.53829
C         42.16448       92.23289       17.69877
C         43.14979       93.08000       18.47401
N         43.74877       94.13383       17.87377
O         43.42245       92.81767       19.63726
H         40.77562       88.64404       19.31552
H         39.75839       90.75437       17.39464
H         42.43597       90.45340       18.91529
H         41.06672       91.51760       19.41360
H         41.32894       92.87760       17.35044
H         42.70799       91.83656       16.81932
H         43.53703       94.37072       16.89361
H         44.42946       94.71216       18.38881
N         41.37236       88.05902       16.60915
C         41.89561       87.29398       15.48519
C         43.21800       86.61621       15.82844
O         43.79247       86.00007       14.94190
C         40.83183       86.26309       15.00414
C         39.57729       86.98295       14.48766
C         40.43354       85.24807       16.09604
H         41.10023       87.51676       17.43674
H         42.12331       87.97134       14.63228
H         41.26420       85.69377       14.15200
H         39.84619       87.67325       13.66003
H         38.84382       86.24561       14.09807
H         39.09164       87.56906       15.29756
H         41.32495       84.70715       16.47656
H         39.92002       85.73735       16.95019
H         39.72837       84.49889       15.67878
N         43.77712       86.70461       17.07224
C         45.07727       86.14345       17.41413
C         44.94350       85.08046       18.48435
O         45.45406       83.98740       18.27940
C         46.01593       87.26300       17.90732
C         46.24181       88.32048       16.85451
N         46.82526       88.01199       15.67196
O         45.90249       89.47290       17.07787
H         43.28897       87.21990       17.81600
H         45.55870       85.66869       16.53044
H         47.00239       86.82934       18.18402
H         45.58275       87.73459       18.81706
H         47.13059       87.05003       15.46549
H         46.97966       88.74079       14.95944
N         44.29208       85.32812       19.65904
C         44.27678       84.38108       20.77246
C         42.88535       83.85844       21.04683
O         41.93647       84.43583       20.54669
C         44.76577       85.11130       22.04019
C         46.09111       85.79265       21.82920
C         47.25419       85.04101       21.61369
C         46.16730       87.19683       21.83849
C         48.47887       85.68495       21.41414
C         47.38932       87.83785       21.63117
C         48.55126       87.08301       21.42026
O         49.73880       87.68901       21.22286
H         43.81994       86.23554       19.79120
H         44.92765       83.50990       20.54273
H         44.82933       84.42170       22.90886
H         44.00245       85.88428       22.29008
H         47.21121       83.95924       21.60577
H         45.27970       87.79842       21.99538
H         49.37217       85.09583       21.25394
H         47.43014       88.92002       21.63443
H         49.82853       88.65278       21.22006
N         42.72192       82.80930       21.91475
C         41.46999       82.24758       22.43520
C         40.61897       81.47150       21.43154
O         40.37817       80.29220       21.65182
C         40.60664       83.31405       23.14297
C         41.37924       84.05718       24.24001
C         40.47597       85.00958       24.96790
O         39.40852       84.54305       25.64446
O         40.70865       86.20762       24.95967
H         43.58252       82.40272       22.31331
H         41.75781       81.50832       23.21902
H         39.73478       82.79592       23.60274
H         40.21492       84.05405       22.41273
H         42.22130       84.61989       23.78222
H         41.79503       83.33297       24.97248
N         40.04394       82.09260       20.36978
C         39.02269       81.50668       19.51182
C         39.51317       80.32647       18.68255
O         38.68643       79.70991       18.02274
C         38.46961       82.58617       18.54400
C         38.00831       83.91233       19.19149
C         36.83813       83.77934       20.11509
O         35.68414       84.37883       19.77919
O         36.93177       83.17183       21.16887
H         40.26487       83.06692       20.22608
H         38.19697       81.15400       20.16785
H         37.62452       82.16336       17.95595
H         39.28123       82.85107       17.83075
H         37.74095       84.59218       18.36578
H         38.81272       84.44357       19.73040
N         40.82495       79.95946       18.62966
C         41.27105       78.85008       17.81435
H         42.37099       78.72913       17.90624
H         40.77877       77.91125       18.14618
H         41.02332       79.04030       16.74776
H         41.53850       80.48024       19.15732
Ca        33.88749       84.63254       21.09359
O         32.23716       87.43847       22.01590
H         31.89109       88.19487       22.55292
H         31.49874       86.78101       22.02010
O         34.05708       82.06518       23.06164
H         34.96875       82.16831       22.69085
H         33.47429       81.98519       22.26574
O         36.27871       85.27257       23.29658
H         36.32851       86.09799       22.75266
H         37.21610       84.96056       23.36075
O         33.21101       85.16701       24.38897
H         33.72621       84.33760       24.54990
H         33.83066       85.89208       24.65155

Ca 1.0



