%chk=apoCaM-CA-Ng.loop1.water3.frame1373.chk
%nprocshared=20
%mem=10GB
%nosave
#b3lyp/svp scf=(tight,noincore,xqc) Test 
#IOP(5/87=12) Density=Current Pop=(MK,readradii) iop(6/33=2) iop(6/42=6)

apoCaM-CA-Ng.loop1.water3.frame1373 

   0  1 
C         -2.41100       69.22932       71.22556
C         -3.12378       67.91911       71.36986
O         -2.54132       66.99621       71.92235
H         -1.48393       69.07929       70.63262
H         -3.04432       69.97954       70.70837
H         -2.14163       69.61852       72.22947
N         -4.38699       67.75686       70.87920
C         -5.11190       66.49567       70.95936
C         -5.35024       65.94253       69.56174
O         -6.36169       65.29310       69.33171
C         -6.42813       66.69338       71.73841
C         -6.17957       67.22519       73.12280
O         -5.44405       66.51584       74.00007
O         -6.64759       68.30129       73.45949
H         -4.84838       68.54875       70.40604
H         -4.50860       65.73004       71.49701
H         -6.96564       65.72465       71.83003
H         -7.07770       67.40328       71.17956
N         -4.40185       66.09896       68.59193
C         -4.48056       65.45995       67.28266
C         -4.56619       63.94666       67.42091
O         -5.53676       63.39570       66.91992
C         -3.27103       65.84152       66.37976
C         -3.54362       67.00560       65.41536
C         -3.95892       68.33359       66.05490
C         -4.23100       69.35866       64.93821
N         -4.70244       70.63203       65.47559
H         -3.56677       66.66316       68.80801
H         -5.41135       65.78119       66.76206
H         -3.05033       64.99235       65.69462
H         -2.34901       66.01302       66.97419
H         -4.35644       66.68284       64.72728
H         -2.62586       67.16562       64.80651
H         -3.15739       68.70412       66.72970
H         -4.88918       68.18765       66.64432
H         -5.00583       68.95588       64.24652
H         -3.29980       69.52709       64.35158
H         -3.98101       71.04609       66.10823
H         -4.87716       71.28898       64.68027
H         -5.59842       70.48975       65.99589
N         -3.62776       63.16540       68.02763
C         -2.43415       63.62198       68.73290
C         -2.44104       63.11313       70.16541
O         -3.34363       62.38320       70.55258
C         -1.17599       63.20899       67.94826
C         -1.17492       61.76287       67.56085
O         -1.18578       60.79387       68.49487
O         -1.19604       61.46788       66.37830
H         -3.78181       62.14625       67.98892
H         -2.39984       64.71758       68.81446
H         -0.25673       63.45320       68.51587
H         -1.15154       63.80732       67.01118
N         -1.47579       63.52297       71.03537
C         -1.46485       63.15373       72.44088
C         -1.19784       61.68541       72.66692
O         -1.01269       60.94471       71.71193
H         -0.74707       64.17324       70.70549
H         -2.43147       63.44166       72.90756
H         -0.65666       63.71968       72.95059
N         -1.11010       61.21594       73.94499
C         -0.77750       59.83017       74.28392
C         -0.21721       59.71929       75.70778
O         -0.46308       60.60416       76.51617
C         -2.00952       58.90438       74.12294
C         -2.36000       58.69219       72.68148
O         -1.43126       58.15789       71.85612
O         -3.46256       58.99991       72.25987
H         -1.20364       61.91236       74.69981
H          0.03630       59.52022       73.60841
H         -2.86667       59.32047       74.69942
H         -1.81180       57.89895       74.53568
N          0.56149       58.66955       76.12045
C          0.99576       57.56050       75.28104
C          1.95619       57.97603       74.18847
O          2.39527       59.11698       74.14703
H          0.86856       58.65248       77.10563
H          0.11821       57.05738       74.83957
H          1.51992       56.80380       75.90369
N          2.31178       57.06210       73.24452
C          3.20946       57.35256       72.12967
C          2.69998       58.51022       71.27152
O          1.50005       58.70642       71.14605
C          3.45855       56.06345       71.29704
C          4.36696       56.28029       70.08291
O          2.24079       55.51720       70.85529
H          1.91564       56.11345       73.33048
H          4.19020       57.65963       72.55673
H          3.98425       55.33810       71.96582
H          2.07462       54.68739       71.37588
H          5.34270       56.70775       70.39395
H          4.54980       55.30830       69.57722
H          3.88678       56.95957       69.34639
N          3.61278       59.33637       70.68116
C          3.34238       60.50169       69.84245
C          2.65590       60.10635       68.54835
O          1.50403       59.70167       68.56866
C          2.57248       61.63507       70.58052
C          3.28410       61.97884       71.91280
C          2.48056       62.87701       69.66408
C          2.58022       63.06069       72.73065
H          4.61074       59.12879       70.84106
H          4.33963       60.92319       69.58103
H          1.54106       61.28985       70.80835
H          4.32978       62.29957       71.71479
H          3.31589       61.06802       72.54584
H          3.49575       63.26956       69.43814
H          1.98477       62.62983       68.70322
H          1.87732       63.68210       70.12723
H          3.11635       63.19980       73.69233
H          2.58503       64.03576       72.20308
H          1.53710       62.75633       72.94740
N          3.32835       60.23459       67.37142
C          2.75771       59.93139       66.06601
C          3.44472       58.74286       65.41659
O          3.08312       58.44506       64.28980
C          2.79994       61.18708       65.15537
C          4.21426       61.71123       64.88117
O          2.04685       62.21826       65.73680
H          4.30663       60.55404       67.40064
H          1.68729       59.64153       66.16163
H          2.36302       60.92533       64.16092
H          1.10115       62.05535       65.48670
H          4.84313       60.92575       64.41257
H          4.15877       62.57569       64.18620
H          4.70152       62.06319       65.81315
N          4.40643       58.00653       66.05488
C          5.02561       56.79052       65.51669
C          3.94914       55.70455       65.39468
O          3.78978       54.90940       66.30989
C          6.19997       56.36978       66.45197
C          6.97813       55.15803       65.92897
O          7.09203       57.45077       66.57242
H          4.70479       58.30419       66.99531
H          5.47326       57.00756       64.52054
H          5.77667       56.12765       67.45509
H          7.59517       57.32267       67.41946
H          7.79695       54.91213       66.64029
H          6.32444       54.26792       65.83580
H          7.43069       55.38814       64.94119
N          3.11103       55.69288       64.31553
C          1.90100       54.88635       64.15608
C          0.86392       55.19966       65.22916
O          1.16590       55.05240       66.40226
C          2.15260       53.37203       64.10529
C          3.29053       52.98690       63.15411
C          3.19928       51.50329       62.78075
C          4.44715       51.04691       62.01836
N          4.26905       49.69598       61.48764
H          3.32251       56.32644       63.53319
H          1.47255       55.14788       63.16062
H          1.19555       52.92321       63.75226
H          2.37676       52.94941       65.10835
H          4.25333       53.21988       63.66062
H          3.23495       53.57110       62.20914
H          2.29594       51.37252       62.14260
H          3.08597       50.86935       63.68713
H          5.31428       51.06670       62.71669
H          4.65944       51.73840       61.17374
H          3.52085       49.70434       60.75598
H          5.16342       49.38044       61.04802
H          4.00752       49.03007       62.25026
N         -0.40560       55.57718       64.89849
C         -1.45178       55.79421       65.90250
C         -1.44456       57.23700       66.48289
O         -2.39633       57.27750       67.51613
C         -2.85210       55.40304       65.38246
C         -2.92814       53.92259       64.99643
C         -4.33274       53.55440       64.61711
O         -4.57794       53.12958       63.50007
O         -5.32954       53.68269       65.51498
H         -0.65926       55.58188       63.89994
H         -1.25665       55.11440       66.76291
H         -3.14688       56.03547       64.51949
H         -3.58709       55.57512       66.19946
H         -2.62437       53.29258       65.86049
H         -2.23753       53.71927       64.14994
N         -1.80206       58.31422       65.54493
C         -1.18872       58.30171       64.21796
H         -1.43425       59.25441       63.70097
H         -0.08454       58.20110       64.27493
H         -1.64478       57.51198       63.59232
H         -1.48320       59.18382       66.01608
Ca        -1.65253       57.76010       69.63019
O         -1.74396       54.92589       70.43248
H         -1.20893       55.06028       69.60976
H         -2.63404       55.30243       70.21483
O          0.85293       56.83610       68.38779
H          1.64139       57.20681       67.91899
H          1.01735       57.02049       69.34224
O         -4.14229       59.46306       68.99508
H         -4.09071       58.91873       69.81865
H         -4.48708       60.33599       69.30550

Ca 1.0



