%chk=apoCaM-CA-Ng.loop4.water2.frame474.chk
%nprocshared=20
%mem=10GB
%nosave
#b3lyp/svp scf=(tight,noincore,xqc) Test 
#IOP(5/87=12) Density=Current Pop=(MK,readradii) iop(6/33=2) iop(6/42=6)

apoCaM-CA-Ng.loop4.water2.frame474 

   -3  1 
C         28.30651       51.69674      109.31143
C         27.56439       51.65969      110.61278
O         27.21630       50.57151      111.04178
H         29.23307       51.08944      109.40143
H         27.67055       51.26162      108.51175
H         28.58373       52.73240      109.02850
N         27.30863       52.80194      111.31873
C         26.62916       52.80509      112.61076
C         27.38382       51.96050      113.61975
O         26.89347       50.93030      114.04433
C         25.08131       52.61941      112.51229
C         24.48458       51.76402      111.40962
O         24.55538       50.41934      111.34309
O         23.86725       52.33167      110.52123
H         27.65613       53.70137      110.95345
H         26.70600       53.82713      113.05145
H         24.70912       53.64310      112.26870
H         24.64519       52.38414      113.50644
N         28.60222       52.41947      114.04991
C         29.52160       51.84831      115.04081
C         28.93255       51.85429      116.45444
O         29.39405       52.63902      117.27163
C         30.10857       50.47926      114.60355
C         31.25159       49.98877      115.53920
C         30.59478       50.52233      113.14339
C         32.49980       50.88512      115.57738
H         28.92865       53.30292      113.62607
H         30.37764       52.55743      115.06308
H         29.30206       49.72660      114.64499
H         31.57501       48.98151      115.19839
H         30.86578       49.87992      116.57518
H         31.03461       49.54684      112.86055
H         29.74723       50.71850      112.45522
H         31.35500       51.31416      112.98780
H         33.26357       50.42667      116.23945
H         32.95340       50.99104      114.57053
H         32.26965       51.89053      115.98333
N         27.91059       51.02847      116.81537
C         27.21878       51.10379      118.09514
C         27.95521       50.35601      119.21992
O         28.26732       51.03035      120.19162
C         25.72601       50.73972      117.92096
C         24.96336       51.71552      117.05587
O         25.56710       52.78438      116.49915
O         23.77134       51.53829      116.86244
H         27.54193       50.36862      116.13016
H         27.17764       52.17106      118.41731
H         25.23717       50.72826      118.91922
H         25.61850       49.75790      117.43674
N         28.32551       49.03250      119.23037
C         28.13571       48.05701      118.17111
C         26.70448       47.56362      118.06780
O         25.89094       47.95017      118.89542
H         28.86615       48.70544      120.04701
H         28.75605       47.16040      118.38793
H         28.52591       48.50398      117.24452
N         26.28284       46.68754      117.10356
C         27.14131       46.02151      116.11859
C         27.90823       47.01544      115.25503
O         27.46002       48.14541      115.13888
C         26.27513       45.09113      115.21945
C         25.37123       45.91991      114.33953
O         24.16173       45.92973      114.49967
O         25.94832       46.70299      113.40744
H         25.27942       46.44368      117.11046
H         27.86333       45.41806      116.70921
H         25.68251       44.41599      115.87454
H         26.89961       44.45337      114.56077
N         29.07220       46.71064      114.61682
C         29.73755       45.42327      114.66057
C         30.91291       45.48238      115.59110
O         31.12672       46.50167      116.23470
H         29.56129       47.46433      114.11104
H         30.05541       45.15187      113.63108
H         29.08216       44.61446      115.02766
N         31.72171       44.39703      115.72107
C         32.85411       44.36875      116.63417
C         34.18431       44.51696      115.90530
O         35.18966       44.65462      116.58981
C         32.73710       43.18663      117.62876
C         32.50318       41.76625      117.07712
C         33.58531       41.27710      116.16159
N         34.41316       40.27252      116.52639
O         33.69952       41.77622      115.05927
H         31.54033       43.57305      115.12811
H         32.83921       45.27719      117.27692
H         31.85648       43.39632      118.27703
H         33.63202       43.18442      118.28762
H         31.52803       41.69880      116.54735
H         32.43527       41.09270      117.95883
H         34.33551       39.83071      117.45317
H         35.14555       39.94428      115.87998
N         34.26176       44.62959      114.54153
C         35.46313       45.10087      113.84721
C         36.07262       44.09092      112.88381
O         37.10616       44.40990      112.31386
C         35.15347       46.43114      113.09851
C         34.69060       47.52614      114.07155
C         34.11238       46.25531      111.97722
H         33.41659       44.47494      113.97645
H         36.26525       45.31804      114.58754
H         36.09630       46.78710      112.62674
H         35.46562       47.70137      114.84736
H         34.52729       48.47927      113.52428
H         33.73937       47.24319      114.57118
H         33.11757       45.96733      112.37537
H         33.99508       47.21271      111.43022
H         34.44090       45.48502      111.24807
N         35.51871       42.86772      112.65318
C         36.12227       41.85542      111.79128
C         35.21489       41.48811      110.62503
O         35.63972       40.64677      109.84176
C         36.38052       40.56697      112.61895
C         37.42071       40.61609      113.72037
N         38.24066       41.67312      113.92882
O         37.53885       39.63147      114.43416
H         34.63639       42.62457      113.11002
H         37.07851       42.20815      111.34818
H         36.70252       39.74477      111.94276
H         35.41309       40.26795      113.07747
H         38.22135       42.50609      113.33485
H         38.93898       41.64284      114.68645
N         33.97503       42.03249      110.42066
C         33.09353       41.53285      109.36365
C         31.86181       42.39153      109.15670
O         31.27450       42.84648      110.12729
C         32.67751       40.06004      109.64760
C         31.96853       39.86367      110.97460
C         32.65831       39.30752      112.06526
C         30.61738       40.21475      111.13723
C         32.01822       39.13150      113.29607
C         29.97528       40.03221      112.36453
C         30.67300       39.49535      113.44959
O         30.04138       39.33028      114.62912
H         33.63858       42.79055      111.03316
H         33.65705       41.55238      108.40408
H         33.59264       39.43684      109.64455
H         32.05021       39.65364      108.82469
H         33.69651       39.02072      111.96661
H         30.05312       40.62047      110.31392
H         32.56879       38.71239      114.12850
H         28.93315       40.30794      112.47021
H         30.48809       38.96286      115.40495
N         31.34615       42.50542      107.89345
C         30.07758       43.12282      107.51260
C         30.15434       44.64043      107.43160
O         29.83273       45.17704      106.37925
C         28.90217       42.59376      108.36851
C         27.52369       42.81401      107.72147
C         27.38645       42.02889      106.44149
O         27.15770       42.60051      105.38799
O         27.52157       40.68756      106.45389
H         31.84604       42.01614      107.13469
H         29.88208       42.77587      106.47325
H         28.91950       43.06492      109.37389
H         29.01654       41.49686      108.49671
H         27.35355       43.89674      107.54009
H         26.73961       42.44989      108.41960
N         30.59383       45.40474      108.47310
C         30.67551       46.86127      108.40831
C         31.65340       47.34785      107.33843
O         31.67519       48.54458      107.08433
C         31.10980       47.47077      109.76811
C         30.33351       47.00015      111.01579
C         28.85711       47.24385      110.93870
O         28.17809       46.65972      110.11026
O         28.26508       48.06495      111.82403
H         30.86748       44.94306      109.33896
H         29.66115       47.23801      108.15326
H         31.03424       48.57950      109.70002
H         32.17616       47.21566      109.94190
H         30.74929       47.53998      111.88890
H         30.50233       45.92391      111.21508
N         32.50563       46.49689      106.69028
C         33.43941       46.92116      105.66734
H         34.47311       46.68012      105.99261
H         33.22377       46.37129      104.72705
H         33.37929       48.00929      105.45851
H         32.52337       45.49588      106.92631
Ca        25.31516       48.70084      112.57935
O         23.65572       48.95222      115.19232
H         23.10816       49.26170      114.42751
H         24.49087       49.47992      115.12748
O         25.01757       47.87579      109.66152
H         24.68761       46.99482      109.96992
H         25.93915       47.93240      110.01694

Ca 1.0



