%chk=apoCaM-CA-Ng.loop1.water2.frame1149.chk
%nprocshared=20
%mem=10GB
%nosave
#b3lyp/svp scf=(tight,noincore,xqc) Test 
#IOP(5/87=12) Density=Current Pop=(MK,readradii) iop(6/33=2) iop(6/42=6)

apoCaM-CA-Ng.loop1.water2.frame1149 

   0  1 
C         84.78486       31.49482       98.57241
C         86.17893       31.98596       98.31794
O         86.46867       33.11550       98.67874
H         84.05949       32.13045       98.02160
H         84.65796       30.44253       98.24423
H         84.56660       31.55654       99.65932
N         87.08894       31.20230       97.66996
C         88.45826       31.62315       97.38657
C         88.59231       31.99543       95.92265
O         89.36253       31.39797       95.18416
C         89.48608       30.58421       97.89593
C         89.43187       29.21463       97.26346
O         90.30906       28.27583       97.66534
O         88.62305       28.93988       96.39153
H         86.77870       30.28216       97.32760
H         88.69485       32.55554       97.93440
H         89.34570       30.46443       98.99216
H         90.50628       30.99488       97.72926
N         87.88403       33.06609       95.47129
C         87.94640       33.59213       94.11517
C         88.82130       34.84446       94.03501
O         89.73591       34.80982       93.22271
C         86.53702       33.82154       93.53535
C         85.76667       32.50232       93.37752
C         84.39422       32.74366       92.73745
C         83.67024       31.41872       92.46523
N         82.36500       31.65405       91.84863
H         87.29270       33.54994       96.15562
H         88.43486       32.84717       93.44499
H         86.64841       34.27377       92.52486
H         85.95104       34.52411       94.16013
H         85.63371       32.01208       94.36708
H         86.35681       31.82586       92.72046
H         84.52795       33.27681       91.77054
H         83.77900       33.37801       93.41289
H         83.53332       30.85999       93.41741
H         84.28949       30.79787       91.77921
H         81.90990       30.73432       91.64819
H         81.75476       32.20057       92.49873
H         82.47925       32.17634       90.94937
N         88.70425       35.97350       94.80297
C         87.80160       36.18184       95.93274
C         88.50830       35.76653       97.22388
O         89.66351       35.36355       97.16996
C         87.30987       37.64606       95.96098
C         88.45246       38.58577       96.17093
O         89.18602       38.48881       97.29092
O         88.76372       39.38983       95.30635
H         89.43783       36.68630       94.66128
H         86.89267       35.57492       95.81664
H         86.57294       37.79731       96.77729
H         86.80662       37.87392       94.99499
N         87.85545       35.77954       98.41940
C         88.45308       35.22444       99.62548
C         89.55325       36.05165      100.24842
O         89.74838       37.20485       99.89890
H         86.86713       36.07085       98.44928
H         88.84917       34.21841       99.38859
H         87.67241       35.09408      100.40473
N         90.31407       35.47146      101.21949
C         91.32724       36.14749      102.03125
C         91.06071       35.81878      103.51292
O         90.20771       34.97781      103.76546
C         92.71524       35.62288      101.59495
C         93.00095       35.94534      100.15523
O         93.04660       37.22710       99.74492
O         93.21082       35.04800       99.35541
H         90.16811       34.46350      101.39051
H         91.27532       37.24592      101.87569
H         92.75756       34.52159      101.74751
H         93.53305       36.06660      102.18024
N         91.72442       36.36676      104.57691
C         92.67393       37.46310      104.55149
C         91.97133       38.76712      104.30467
O         91.10627       39.11846      105.09582
H         91.50553       35.98724      105.51219
H         93.50675       37.27856      103.85819
H         93.13287       37.55628      105.56027
N         92.29693       39.54879      103.23943
C         91.67695       40.84687      102.98950
C         90.77928       40.76312      101.76969
O         90.91657       39.83237      100.98825
C         92.77865       41.93272      102.90812
C         92.24073       43.33215      102.61657
O         93.71693       41.59223      101.92092
H         93.00317       39.20281      102.57085
H         91.00336       41.10903      103.83495
H         93.27374       41.95185      103.90947
H         94.61498       41.84040      102.26524
H         93.07936       44.06061      102.61394
H         91.76221       43.35470      101.61625
H         91.50491       43.63738      103.38847
N         89.73458       41.63899      101.63793
C         88.69255       41.55886      100.61632
C         89.25080       41.85052       99.23622
O         90.23941       41.25497       98.84807
C         87.93704       40.19332      100.66630
C         87.46354       39.81907      102.09831
C         86.75727       40.16917       99.67570
C         86.50338       40.81825      102.75075
H         89.61894       42.37206      102.35406
H         87.93700       42.34332      100.84033
H         88.62446       39.38863      100.34700
H         88.34851       39.71324      102.76159
H         86.96705       38.82474      102.06307
H         86.02070       40.96631       99.90635
H         87.11374       40.31963       98.63540
H         86.24609       39.18353       99.71240
H         86.98190       41.81181      102.86925
H         85.57044       40.92320      102.16151
H         86.23018       40.45206      103.76289
N         88.61545       42.72599       98.40747
C         89.05848       42.96565       97.03447
C         90.34426       43.80898       96.98060
O         90.88306       43.99502       95.89860
C         87.88377       43.60099       96.23944
C         88.10123       43.63902       94.72344
O         87.61859       44.89356       96.72261
H         87.73808       43.15894       98.73551
H         89.24902       41.97152       96.57180
H         86.99748       42.94141       96.41132
H         86.65668       45.07489       96.55375
H         88.29344       42.61361       94.34079
H         87.18214       44.02346       94.23071
H         88.94014       44.30365       94.44246
N         90.87162       44.38370       98.10206
C         92.02591       45.28308       98.09591
C         93.31691       44.57369       97.70180
O         93.74775       43.68175       98.41943
C         92.17847       45.92678       99.50266
C         93.39439       46.84479       99.63137
O         91.02637       46.67808       99.79839
H         90.38879       44.24122       98.99983
H         91.82172       46.10801       97.37701
H         92.32276       45.12004      100.25681
H         90.47260       46.14682      100.42831
H         93.42497       47.27841      100.65342
H         94.33116       46.26735       99.49263
H         93.34526       47.66785       98.88849
N         94.01570       44.97535       96.59444
C         95.34769       44.49004       96.22765
C         95.36111       42.98563       96.09211
O         96.03069       42.30418       96.85812
C         96.42089       45.00108       97.21413
C         96.47523       46.53593       97.23292
C         97.66680       47.04163       98.05139
C         97.67473       48.57480       98.10721
N         98.86950       49.06844       98.79007
H         93.60175       45.69864       95.98705
H         95.62605       44.91209       95.23563
H         97.40730       44.62151       96.86482
H         96.24195       44.61655       98.24204
H         95.52860       46.93523       97.64877
H         96.58457       46.91621       96.19347
H         98.60329       46.68462       97.56824
H         97.62200       46.63830       99.08664
H         96.76551       48.92481       98.64593
H         97.65281       48.99067       97.07527
H         99.72367       48.79443       98.25154
H         98.82629       50.11180       98.84246
H         98.92273       48.67940       99.75914
N         94.61069       42.40097       95.12474
C         94.45229       40.96263       95.00562
C         92.98541       40.61943       95.30322
O         92.81609       40.83131       96.67168
C         95.00278       40.41599       93.67587
C         96.53222       40.54900       93.62201
C         97.08498       39.93152       92.37096
O         96.76545       40.36517       91.27571
O         97.94350       38.89679       92.45329
H         94.08174       43.00477       94.47644
H         95.03007       40.41906       95.78870
H         94.57192       40.92762       92.79984
H         94.75128       39.33321       93.61702
H         96.97504       40.02736       94.49960
H         96.82726       41.61913       93.66388
N         91.97740       41.42583       94.59015
C         91.90489       41.15895       93.15577
H         92.64755       41.77853       92.62024
H         92.02681       40.07655       92.93306
H         90.91761       41.49056       92.76759
H         91.04982       41.14629       94.98654
Ca        91.19216       39.39970       97.17752
O         92.56137       36.72531       96.39959
H         91.68303       36.88375       95.97146
H         92.42095       35.92002       96.95719
O         93.74550       40.52557       99.29132
H         92.95969       41.11911       99.39722
H         93.61352       39.81751       99.96956

Ca 1.0



