%chk=apoCaM-CA-Ng.loop2.water4.frame1465.chk
%nprocshared=20
%mem=10GB
%nosave
#b3lyp/svp scf=(tight,noincore,xqc) Test 
#IOP(5/87=12) Density=Current Pop=(MK,readradii) iop(6/33=2) iop(6/42=6)

apoCaM-CA-Ng.loop2.water4.frame1465 

   -2  1 
C         52.33367       76.92515       85.81075
C         53.61691       76.94340       85.02605
O         54.65700       76.68550       85.61385
H         51.64075       76.16709       85.38740
H         52.52913       76.65851       86.87116
H         51.85951       77.92815       85.78324
N         53.66420       77.21500       83.68997
C         52.49441       77.49642       82.85633
C         52.55546       78.86285       82.16511
O         51.52659       79.29313       81.66188
C         52.31937       76.34185       81.84532
C         53.47644       76.20639       80.88533
O         53.52572       75.20064       80.00125
O         54.36804       77.03854       80.85209
H         54.59174       77.16712       83.24426
H         51.58192       77.52072       83.48477
H         51.38441       76.48474       81.25926
H         52.22191       75.39524       82.41778
N         53.70563       79.60098       82.09190
C         53.76020       80.94892       81.52802
C         53.27335       81.05701       80.08715
O         52.86814       82.14993       79.71515
C         55.18423       81.51444       81.62696
H         54.57522       79.21668       82.48504
H         53.09345       81.58626       82.15054
H         55.22103       82.56216       81.26004
H         55.52874       81.50278       82.68331
H         55.88439       80.89827       81.02056
N         53.31451       80.00943       79.20998
C         52.83470       80.11179       77.82679
C         51.74293       79.09325       77.49033
O         51.17248       79.22053       76.41551
C         54.02297       80.01659       76.83573
C         54.81506       78.75596       77.03838
O         55.97372       78.81136       77.41533
O         54.20482       77.56674       76.92258
H         53.73131       79.12289       79.52311
H         52.36483       81.10648       77.66423
H         54.68971       80.88982       77.00834
H         53.65708       80.07058       75.78753
N         51.40450       78.05605       78.31550
C         50.34902       77.09836       77.99897
C         50.90422       75.72181       77.70892
O         52.10993       75.54026       77.71174
H         51.91327       77.91087       79.19653
H         49.76884       77.40942       77.10542
H         49.64491       77.05080       78.85793
N         50.05937       74.69159       77.42188
C         50.52454       73.33632       77.12788
C         51.38270       73.33281       75.87487
O         50.89180       73.71882       74.82253
C         49.31550       72.39281       76.94457
C         49.72058       70.94696       76.76044
N         49.31898       70.00256       77.64274
O         50.40468       70.62109       75.80142
H         49.04512       74.88204       77.43103
H         51.10990       72.97154       78.00232
H         48.71183       72.71637       76.06826
H         48.67199       72.47723       77.84665
H         48.73464       70.24952       78.45452
H         49.59078       69.01695       77.51247
N         52.68073       72.91652       75.92265
C         53.55843       72.91036       74.76126
C         54.62731       73.96608       74.91245
O         54.65044       74.63765       75.92864
H         53.07933       72.62197       76.82587
H         52.98886       73.15111       73.84071
H         54.00367       71.90050       74.63735
N         55.52535       74.24901       73.93191
C         55.62481       73.52656       72.67202
C         56.26663       72.17682       72.92497
O         55.73406       71.16430       72.49311
C         56.44850       74.35324       71.65041
C         56.41711       73.71889       70.25322
O         55.95399       75.66912       71.56700
H         56.16518       75.04438       74.09177
H         54.61347       73.41660       72.22224
H         57.50355       74.41645       71.99571
H         54.97632       75.62158       71.39653
H         57.00093       74.34104       69.54326
H         56.84801       72.69682       70.26890
H         55.36893       73.65938       69.88483
N         57.39445       72.10482       73.69098
C         58.04613       70.85371       74.06727
C         57.64112       70.47131       75.48908
O         57.11910       71.32370       76.19536
C         59.60970       70.98317       73.96017
C         60.17062       72.12950       74.85855
C         60.04464       71.15461       72.49989
C         61.69873       72.19000       74.94255
H         57.72902       72.97892       74.11667
H         57.67421       70.05287       73.39759
H         60.05467       70.03684       74.31896
H         59.79440       71.98194       75.88890
H         59.82716       73.12360       74.50771
H         61.15100       71.15480       72.41471
H         59.67458       70.30040       71.89585
H         59.65032       72.10242       72.07838
H         62.11163       71.22761       75.30883
H         62.15312       72.43503       73.96302
H         61.98980       72.99378       75.65486
N         57.85698       69.23274       76.02732
C         58.33164       68.05070       75.31179
C         59.73349       67.73321       75.74553
O         59.97734       67.63087       76.93985
C         57.42695       66.83879       75.61449
C         56.00517       67.06542       75.19085
O         55.73709       67.28257       74.02015
O         55.01522       67.00776       76.10221
H         57.63615       69.10710       77.02842
H         58.33058       68.19817       74.21538
H         57.45001       66.61673       76.70470
H         57.81615       65.94521       75.07654
N         60.70905       67.54228       74.80963
C         62.08999       67.26139       75.16671
C         63.01768       68.28573       74.53154
O         62.64945       68.84929       73.51152
C         62.47204       65.83305       74.72665
C         61.55294       64.79457       75.33249
C         61.40489       64.69576       76.72858
C         60.83194       63.91370       74.50637
C         60.54187       63.74794       77.28362
C         59.97853       62.95798       75.06773
C         59.83020       62.87857       76.45463
H         60.46180       67.57765       73.80866
H         62.18803       67.32224       76.25532
H         63.50899       65.60656       75.04510
H         62.44149       65.77013       73.61566
H         61.94698       65.35674       77.39096
H         60.93149       63.96106       73.42909
H         60.42591       63.68831       78.35798
H         59.43013       62.27929       74.42732
H         59.16532       62.14259       76.88762
N         64.26545       68.55899       75.03125
C         64.86858       68.00435       76.23470
C         64.07736       68.23734       77.51091
O         63.84239       67.27358       78.22521
C         66.22230       68.71941       76.32762
C         66.55680       68.92591       74.87024
C         65.21317       69.39713       74.32278
H         65.04174       66.91762       76.07534
H         66.09445       69.73677       76.76224
H         66.98348       68.17357       76.92522
H         67.40775       69.60919       74.66770
H         66.78727       67.92634       74.43152
H         65.00765       70.46160       74.57078
H         65.20413       69.23908       73.22211
N         63.63557       69.48250       77.87080
C         62.96294       69.71319       79.14863
C         63.93699       69.39833       80.27496
O         64.97591       70.04299       80.31644
C         62.47671       71.17366       79.30553
C         61.16988       71.42434       78.54219
C         60.66270       72.83367       78.69809
O         59.59376       73.14288       78.19988
O         61.35888       73.75793       79.38956
H         63.80435       70.27741       77.23593
H         62.06651       69.08024       79.18337
H         63.28046       71.88177       79.00204
H         62.23708       71.36072       80.37668
H         60.39142       70.73951       78.94683
H         61.30890       71.19426       77.47314
N         63.73039       68.44125       81.23069
C         62.57131       67.57651       81.37477
H         61.76683       67.73033       80.64202
H         62.89430       66.51859       81.29096
H         62.12467       67.73527       82.37780
H         64.47203       68.30813       81.93498
Ca        54.80201       75.89338       78.29580
O         56.90647       74.39748       80.49877
H         57.05246       75.01462       81.25914
H         57.78831       74.34051       80.05231
O         57.40612       75.02567       76.95649
H         57.68986       74.21459       76.46470
H         58.18480       75.26683       77.51770
O         54.90144       72.82068       78.73551
H         55.65055       72.17475       78.70510
H         54.12962       72.29459       79.06437
O         57.42117       77.28343       79.59883
H         58.20949       77.59436       79.08691
H         56.89124       78.10278       79.76606

Ca 1.0



