%chk=apoCaM-CA-Ng.loop1.water3.frame1170.chk
%nprocshared=20
%mem=10GB
%nosave
#b3lyp/svp scf=(tight,noincore,xqc) Test 
#IOP(5/87=12) Density=Current Pop=(MK,readradii) iop(6/33=2) iop(6/42=6)

apoCaM-CA-Ng.loop1.water3.frame1170 

   0  1 
C        116.77892       42.53347       16.11790
C        116.16150       42.24926       17.45202
O        115.18356       41.51711       17.50365
H        117.82889       42.17747       16.10975
H        116.21601       42.01795       15.30947
H        116.75408       43.62639       15.92327
N        116.66621       42.82943       18.57954
C        116.07056       42.63999       19.89999
C        115.40703       43.92360       20.35401
O        115.58569       44.35266       21.48863
C        117.10476       42.07686       20.90442
C        118.28562       42.97666       21.19889
O        119.23122       42.55606       22.05944
O        118.39657       44.08021       20.68751
H        117.46764       43.46895       18.47996
H        115.24738       41.89854       19.83252
H        117.49183       41.11474       20.50619
H        116.58986       41.86577       21.86686
N        114.60501       44.59473       19.48604
C        113.86640       45.79417       19.84377
C        112.76465       45.44069       20.83670
O        112.76846       46.02381       21.90845
C        113.33163       46.54810       18.60127
C        114.48899       46.93982       17.66169
C        114.00629       47.75585       16.46071
C        115.18079       48.06556       15.52028
N        114.74250       48.85812       14.37336
H        114.53112       44.23610       18.52217
H        114.57005       46.51326       20.32534
H        112.82331       47.47427       18.94920
H        112.59066       45.95666       18.03087
H        114.98729       46.02382       17.28030
H        115.23871       47.53818       18.22523
H        113.55208       48.70499       16.82012
H        113.23822       47.17699       15.90277
H        115.62301       47.11047       15.15644
H        115.96788       48.62573       16.07295
H        114.36369       49.77717       14.69811
H        115.56109       49.03130       13.74611
H        114.00850       48.34077       13.83730
N        111.81353       44.47407       20.62355
C        111.68407       43.62881       19.43800
C        112.06121       42.19159       19.75170
O        112.35006       41.87582       20.90093
C        110.28368       43.78112       18.81800
C        109.18177       43.46956       19.78421
O        109.06305       42.24046       20.31940
O        108.39058       44.34437       20.09259
H        111.15445       44.29252       21.39894
H        112.38939       43.92638       18.65478
H        110.18063       43.13360       17.92350
H        110.17221       44.83625       18.48259
N        112.19880       41.28757       18.74520
C        112.76611       39.96563       18.95293
C        111.84743       39.00310       19.65913
O        110.69753       39.31371       19.90937
H        112.01454       41.58669       17.77356
H        113.72107       40.06570       19.50928
H        112.99544       39.50962       17.96556
N        112.32752       37.77022       19.98324
C        111.50797       36.66826       20.48701
C        111.74007       35.44777       19.59033
O        112.65463       35.49241       18.77994
C        111.90353       36.37780       21.94851
C        111.59338       37.54960       22.83766
O        112.58169       38.16987       23.50949
O        110.44169       37.93496       22.96585
H        113.33285       37.59352       19.83440
H        110.43543       36.94007       20.44049
H        112.99002       36.14558       21.99864
H        111.35565       35.51040       22.35392
N        110.98967       34.30655       19.62271
C        109.80385       34.04656       20.41729
C        108.64462       34.92374       20.02006
O        108.33404       34.99142       18.83798
H        111.27611       33.54435       18.98655
H        110.01260       34.08279       21.50130
H        109.47984       33.00544       20.19880
N        107.91044       35.57197       20.96790
C        106.67057       36.27376       20.65264
C        106.89250       37.77731       20.33224
O        108.18649       38.23381       20.64840
C        105.59639       36.04429       21.73940
C        104.27203       36.74466       21.40045
O        106.05000       36.49740       22.98589
H        108.17047       35.44748       21.95798
H        106.21520       35.78470       19.75909
H        105.37898       34.94842       21.78333
H        106.28828       35.69969       23.52688
H        104.40557       37.84728       21.35784
H        103.88558       36.39442       20.41914
H        103.51182       36.52002       22.17739
N        106.50823       38.02378       18.92870
C        106.60701       39.38281       18.36225
C        105.97103       40.45262       19.25141
O        105.94933       40.30714       20.45998
C        108.07041       39.72994       17.93879
C        108.81986       38.53475       17.28114
C        108.13559       40.96314       17.01738
C        108.15564       37.94965       16.03243
H        105.50578       37.73478       18.83268
H        106.01577       39.34289       17.41852
H        108.63918       39.98288       18.85130
H        108.92391       37.71565       18.02418
H        109.85228       38.85593       17.01763
H        107.54813       40.80104       16.08913
H        107.75384       41.86764       17.52756
H        109.18820       41.17644       16.73467
H        108.06791       38.70650       15.22787
H        108.77631       37.11016       15.65210
H        107.15110       37.54549       16.27360
N        105.48057       41.59946       18.71508
C        105.11935       42.75825       19.53352
C        103.97983       42.55300       20.54072
O        103.72295       43.49474       21.27875
C        104.85439       43.99507       18.63157
C        103.62390       43.84587       17.73213
O        105.97271       44.23618       17.81495
H        105.47918       41.68681       17.68838
H        106.01613       43.00832       20.14086
H        104.67106       44.88568       19.27868
H        106.61170       44.77715       18.34609
H        102.70897       43.68985       18.33944
H        103.49466       44.77427       17.13528
H        103.73880       42.99873       17.02502
N        103.25240       41.39961       20.65342
C        102.14352       41.27953       21.60456
C        102.61855       41.39407       23.04729
O        103.27484       40.48054       23.52752
C        101.38854       39.93389       21.41917
C        100.20367       39.78366       22.38476
O        100.90086       39.84365       20.10456
H        103.45060       40.61201       20.02148
H        101.42708       42.10222       21.38511
H        102.08683       39.08724       21.63400
H        101.49799       39.22513       19.60771
H         99.47135       40.60444       22.23378
H         99.69579       38.81177       22.20972
H        100.54219       39.79433       23.44258
N        102.27796       42.48044       23.80674
C        102.50644       42.58739       25.24760
C        103.94494       42.25907       25.59263
O        104.19749       41.29142       26.29886
C        101.48937       41.70420       26.00809
C        100.04643       42.10547       25.65435
C         99.01118       41.26321       26.40400
C         97.59213       41.64601       25.95739
N         96.58513       40.84375       26.64904
H        101.78595       43.26521       23.35351
H        102.30143       43.63383       25.56940
H        101.64214       41.83854       27.10274
H        101.64742       40.63312       25.75726
H         99.88833       41.96440       24.56408
H         99.88749       43.17953       25.89824
H         99.11912       41.42801       27.49876
H         99.18240       40.18714       26.18327
H         97.49556       41.48189       24.86031
H         97.41058       42.72403       26.16647
H         96.63833       41.01120       27.67983
H         95.63625       41.12164       26.30831
H         96.73273       39.82850       26.44556
N        104.94710       43.03118       25.09685
C        106.35847       42.71115       25.26714
C        107.04017       42.60617       23.86986
O        106.51044       41.46323       23.25059
C        107.02232       43.66055       26.29105
C        108.46736       43.24114       26.59473
C        109.08866       44.14583       27.61849
O        110.09621       44.77884       27.34687
O        108.54543       44.25372       28.84643
H        104.68677       43.86878       24.55714
H        106.46648       41.70774       25.73600
H        106.43720       43.59891       27.23578
H        107.00174       44.71788       25.98712
H        109.06936       43.26776       25.66045
H        108.47670       42.20487       26.99476
N        106.78137       43.73822       22.95689
C        107.04659       45.09154       23.44816
H        106.23988       45.42533       24.12971
H        108.04919       45.16870       23.91821
H        106.99857       45.80475       22.59739
H        107.41034       43.58143       22.14316
Ca       107.94837       40.05057       22.09283
O        110.60362       41.38449       23.15414
H        111.19923       42.16861       23.25434
H        111.19042       40.60592       23.32520
O        106.19150       38.86939       24.51140
H        105.28429       39.20188       24.71813
H        106.22320       38.86950       23.52356
O        108.94400       40.05223       25.23713
H        109.73408       40.40517       25.71810
H        108.28055       39.87308       25.94938

Ca 1.0



