%chk=apoCaM-CA-Ng.loop3.water2.frame968.chk
%nprocshared=20
%mem=10GB
%nosave
#b3lyp/svp scf=(tight,noincore,xqc) Test 
#IOP(5/87=12) Density=Current Pop=(MK,readradii) iop(6/33=2) iop(6/42=6)

apoCaM-CA-Ng.loop3.water2.frame968 

   0  1 
C         80.91403       28.97097       69.50282
C         81.56447       28.82552       70.84729
O         80.86250       28.61958       71.82706
H         80.21158       29.82858       69.51435
H         81.66722       29.13727       68.70323
H         80.35682       28.04036       69.26370
N         82.91924       28.88315       70.96368
C         83.61531       28.64646       72.22591
C         83.34027       29.77798       73.22253
O         82.89086       30.83353       72.79658
C         85.12320       28.47488       71.90507
C         85.96032       27.76309       72.91952
O         87.13787       27.56576       72.66971
O         85.43022       27.24802       74.03989
H         83.47191       29.02462       70.10303
H         83.21963       27.69400       72.62317
H         85.56486       29.46523       71.66041
H         85.21465       27.83249       71.00259
N         83.56539       29.62510       74.56376
C         83.35246       30.68758       75.55153
C         84.64496       31.09745       76.25277
O         84.62885       32.10089       76.95212
C         82.28172       30.26701       76.58632
C         82.73236       29.10383       77.49455
C         81.63050       28.68627       78.47429
C         82.11621       27.54064       79.37515
N         81.06134       27.10066       80.28670
H         83.88295       28.71400       74.90241
H         82.97839       31.59567       75.03119
H         81.35614       29.98228       76.03995
H         82.04236       31.14037       77.23283
H         83.62961       29.41383       78.07391
H         82.99737       28.22141       76.88144
H         80.74136       28.34890       77.89801
H         81.34100       29.55357       79.10734
H         82.99577       27.88103       79.96676
H         82.42985       26.68020       78.74465
H         80.75901       27.89226       80.89942
H         80.24433       26.74180       79.74104
H         81.43033       26.32815       80.88740
N         85.79059       30.36576       76.13166
C         87.06783       30.73295       76.73058
C         88.09240       30.89317       75.60993
O         88.68710       31.95592       75.50161
C         87.48024       29.73559       77.85027
C         87.80281       28.34601       77.38532
O         86.89328       27.61276       76.72134
O         88.93099       27.90562       77.53867
H         85.76751       29.50181       75.58305
H         86.97926       31.71123       77.25373
H         86.66767       29.68259       78.60593
H         88.38323       30.14873       78.35320
N         88.27459       29.90438       74.68367
C         89.12224       30.01960       73.50708
C         90.13538       28.89816       73.39026
O         90.83119       28.86529       72.38549
H         87.72970       29.03955       74.76476
H         89.65521       30.99303       73.47705
H         88.46295       29.96745       72.61335
N         90.29066       27.95374       74.36410
C         91.27633       26.87996       74.30581
C         90.58240       25.49842       74.44024
O         89.37488       25.42667       73.74234
C         92.24765       27.08872       75.48675
C         92.84751       28.47405       75.46000
N         92.56560       29.36675       76.43996
O         93.57638       28.79932       74.53520
H         89.72922       28.01894       75.21792
H         91.83134       26.91262       73.34290
H         93.06656       26.34181       75.48789
H         91.67117       26.96107       76.43105
H         91.93694       29.12018       77.21908
H         92.96211       30.31765       76.41271
N         91.45039       24.36923       74.04459
C         90.82321       23.08596       74.41099
C         89.70471       22.67671       73.46897
O         89.56556       23.23522       72.38889
H         92.33709       24.43275       74.59268
H         90.42345       23.16442       75.44783
H         91.57918       22.27036       74.41487
N         88.83531       21.70443       73.85626
C         87.65941       21.30330       73.08114
C         86.66345       22.45376       72.90645
O         86.91776       23.55890       73.36088
C         86.96642       20.10651       73.78616
C         87.83306       18.87203       73.78977
C         88.24382       18.28404       74.99676
C         88.21738       18.28178       72.57276
C         89.02837       17.12583       74.98407
C         89.00239       17.12775       72.56252
C         89.40970       16.54413       73.76526
O         90.16115       15.42544       73.73684
H         89.00918       21.24662       74.76504
H         87.97699       20.98842       72.06458
H         86.03069       19.81458       73.27113
H         86.68866       20.40759       74.82031
H         87.95446       18.71714       75.94617
H         87.90432       18.71034       71.62900
H         89.33606       16.67979       75.92111
H         89.28914       16.68482       71.61698
H         90.45803       14.98425       74.54511
N         85.48972       22.22992       72.24086
C         84.42540       23.19794       71.98088
C         83.87660       23.79220       73.27188
O         84.57672       24.53046       73.94774
C         84.85249       24.28237       70.95370
C         83.69388       25.25967       70.60791
C         85.40520       23.63011       69.67307
C         82.43057       24.62217       70.01656
H         85.31544       21.28286       71.87618
H         83.61124       22.61787       71.49573
H         85.67405       24.89096       71.39205
H         84.06811       26.01729       69.88607
H         83.39162       25.79093       71.52786
H         84.64864       22.97295       69.19609
H         85.71580       24.41016       68.94641
H         86.29836       23.01255       69.90415
H         82.64909       24.09142       69.06854
H         81.95910       23.92110       70.73459
H         81.68873       25.41992       69.80021
N         82.61608       23.48057       73.68124
C         82.02993       23.95718       74.92976
C         80.86595       23.06079       75.29464
O         79.91423       22.96250       74.53081
C         81.56290       25.42315       74.83957
O         82.63272       26.29004       74.60035
H         82.08411       22.79951       73.11749
H         82.79009       23.87433       75.73695
H         81.05482       25.72607       75.78514
H         80.82118       25.54229       74.02148
H         83.14305       26.35016       75.44914
N         80.89815       22.35567       76.45931
C         79.87087       21.38746       76.84288
C         80.01605       20.98625       78.31480
O         81.01931       21.33143       78.92511
C         79.98742       20.16565       75.91234
H         81.69886       22.52475       77.08510
H         78.88072       21.88493       76.74695
H         79.82858       20.46025       74.85436
H         81.00415       19.72684       75.99907
H         79.26424       19.36806       76.14139
N         79.04055       20.34875       79.02781
C         77.73507       19.90927       78.53806
C         77.41620       18.51653       79.10007
O         78.10341       18.09521       80.02074
C         76.70438       20.93432       79.03129
H         79.21231       20.25257       80.04203
H         77.69622       19.90366       77.43804
H         75.67208       20.70898       78.71571
H         76.71872       20.99419       80.14012
H         76.96110       21.93586       78.62296
N         76.37990       17.72982       78.67507
C         75.54330       17.97925       77.50547
C         76.29025       17.74253       76.19714
O         75.73031       18.03780       75.15015
C         74.23834       17.13052       77.53273
C         74.36930       15.61268       77.26479
C         75.10253       14.85160       78.32894
O         76.11448       14.22785       78.05161
O         74.63621       14.83747       79.59288
H         76.20429       16.88442       79.23054
H         75.20329       19.02683       77.54019
H         73.58006       17.52351       76.72634
H         73.70620       17.30233       78.49410
H         74.85422       15.45198       76.27799
H         73.34588       15.18345       77.20623
N         77.53056       17.17323       76.16377
C         78.21383       16.89529       74.91907
H         79.19795       16.42241       75.12551
H         77.60884       16.19514       74.30414
H         78.38039       17.83631       74.35464
H         78.00694       16.89864       77.03383
Ca        87.85623       26.40700       75.09859
O         84.76022       25.34585       77.47467
H         84.96422       25.93931       78.24028
H         83.88654       24.93907       77.70117
O         86.27140       23.05075       76.28592
H         87.06908       22.46460       76.29878
H         85.52846       22.45727       76.00918

Ca 1.0



