%chk=apoCaM-CA-Ng.loop1.water8.frame566.chk
%nprocshared=20
%mem=10GB
%nosave
#b3lyp/svp scf=(tight,noincore,xqc) Test 
#IOP(5/87=12) Density=Current Pop=(MK,readradii) iop(6/33=2) iop(6/42=6)

apoCaM-CA-Ng.loop1.water8.frame566 

   0  1 
C         72.20032       17.28319       57.45085
C         70.93938       17.52313       56.67131
O         70.51338       18.66581       56.58116
H         73.03188       17.86659       57.00262
H         72.05448       17.60908       58.50212
H         72.48264       16.20934       57.45051
N         70.28496       16.48881       56.06922
C         69.05821       16.67214       55.29049
C         67.91285       17.16650       56.17202
O         68.08690       17.25617       57.38031
C         68.66123       15.34699       54.60128
C         69.75460       14.83463       53.70128
O         70.31416       13.63214       53.93736
O         70.13924       15.50276       52.75469
H         70.69089       15.54347       56.15095
H         69.25701       17.43228       54.50200
H         67.74956       15.49111       53.98424
H         68.43970       14.58165       55.37746
N         66.70857       17.51864       55.62564
C         65.58937       18.02233       56.41977
C         64.37410       17.11973       56.26341
O         63.88778       16.95713       55.15258
C         65.22760       19.45855       55.98809
C         64.12804       20.03614       56.89912
C         63.64279       21.41019       56.43588
C         62.54541       21.92070       57.38168
N         61.99893       23.19516       56.92267
H         66.58550       17.44749       54.60396
H         65.87430       18.06919       57.49353
H         64.88531       19.44985       54.92943
H         66.12731       20.10957       56.05607
H         64.52036       20.10395       57.93822
H         63.24664       19.35957       56.89932
H         63.22687       21.31548       55.40870
H         64.48908       22.13078       56.41747
H         62.96797       22.04425       58.40424
H         61.72043       21.17492       57.43077
H         61.27332       23.51733       57.60344
H         62.75589       23.91374       56.86369
H         61.55027       23.07190       55.98582
N         63.81640       16.52778       57.35837
C         62.62081       15.68885       57.32288
C         61.61434       16.20641       58.35411
O         61.99359       16.27139       59.51498
C         63.05151       14.25370       57.66798
C         61.90633       13.29047       57.60088
O         61.30548       13.12552       56.55127
O         61.54852       12.59268       58.69535
H         64.27596       16.66403       58.27251
H         62.18538       15.67133       56.30313
H         63.50274       14.23153       58.68516
H         63.82818       13.92287       56.94419
N         60.33804       16.61718       58.07949
C         59.68565       16.63163       56.77926
C         58.56251       17.65776       56.79655
O         58.85688       18.81386       57.06497
H         59.78935       16.97546       58.87656
H         59.32614       15.60934       56.52523
H         60.39704       16.96477       55.99731
N         57.26798       17.33937       56.49455
C         56.20714       18.35326       56.48346
C         55.73826       18.67647       57.89374
O         55.23901       17.77898       58.55897
C         54.99680       17.93707       55.60944
C         54.18238       16.78359       56.13876
O         54.67411       15.67607       56.26456
O         52.89202       16.97582       56.47524
H         57.05903       16.37693       56.19592
H         56.60912       19.26535       55.98664
H         55.34574       17.69905       54.58219
H         54.32114       18.81868       55.53843
N         55.85901       19.93003       58.42224
C         55.36126       20.26572       59.75152
C         56.51023       20.42328       60.70521
O         56.62904       21.44646       61.36260
H         56.33392       20.66690       57.87996
H         54.73314       19.44523       60.16305
H         54.71720       21.16963       59.70337
N         57.36281       19.37572       60.85354
C         58.49712       19.29503       61.77732
C         58.97912       17.84538       61.87648
O         58.43898       16.98249       61.19176
C         59.65749       20.25489       61.38228
C         60.19756       19.99804       59.96545
O         59.28486       21.60142       61.55363
H         57.13421       18.55274       60.27868
H         58.14174       19.55462       62.79877
H         60.50554       20.08730       62.07774
H         58.93998       21.95786       60.69426
H         60.56849       18.95920       59.86783
H         59.40486       20.17776       59.20949
H         61.04182       20.68920       59.76355
N         59.95837       17.46888       62.74804
C         60.28878       16.05377       62.91021
C         59.07245       15.28547       63.40687
O         58.99354       14.09819       63.13334
C         61.55203       15.78122       63.76588
C         61.39731       16.29192       65.22017
C         62.78464       16.37354       63.05661
C         62.57609       15.91371       66.11756
H         60.43739       18.18462       63.31202
H         60.51120       15.65829       61.89088
H         61.69418       14.67689       63.79907
H         60.48771       15.83685       65.66727
H         61.27823       17.39479       65.23998
H         62.86500       15.95750       62.02971
H         62.71564       17.47884       62.98593
H         63.72291       16.10094       63.57724
H         62.37970       16.26781       67.15084
H         62.70621       14.81082       66.13697
H         63.51591       16.39064       65.77397
N         58.06365       15.91219       64.09070
C         56.76692       15.28889       64.33665
C         56.61856       14.76734       65.74717
O         57.44697       15.03227       66.60646
C         55.59554       16.20440       63.88459
C         55.57310       17.57389       64.58150
O         55.67498       16.39922       62.49664
H         58.20796       16.87855       64.41052
H         56.70199       14.36688       63.72922
H         54.64470       15.67347       64.12525
H         54.75922       16.62443       62.18365
H         56.45520       18.18497       64.29960
H         54.67405       18.14068       64.25833
H         55.54176       17.45977       65.68446
N         55.62564       13.86032       65.97703
C         55.50929       13.04772       67.17575
C         55.98428       11.64992       66.80719
O         56.92720       11.17040       67.42137
C         54.05898       13.08819       67.72856
C         53.91710       12.28050       69.02161
O         53.13648       12.59251       66.79106
H         54.99978       13.62804       65.19131
H         56.18052       13.43614       67.97493
H         53.80656       14.14417       67.98694
H         52.82191       13.36174       66.24839
H         54.60364       12.67236       69.80110
H         52.87479       12.35607       69.39932
H         54.14514       11.20876       68.84728
N         55.41891       10.96785       65.76711
C         55.88903        9.67033       65.29404
C         56.33783        9.76371       63.84613
O         56.02755       10.73064       63.16897
C         54.73563        8.65277       65.39741
C         54.38127        8.33850       66.85824
C         53.03606        7.61257       67.01561
C         52.92506        6.29077       66.24254
N         51.62316        5.66752       66.48554
H         54.63111       11.39278       65.25677
H         56.76282        9.32386       65.88837
H         55.00615        7.69950       64.89343
H         53.85312        9.08386       64.87242
H         54.28721        9.28210       67.43310
H         55.20698        7.74284       67.30608
H         52.22597        8.29286       66.67274
H         52.88427        7.41395       68.09906
H         53.73347        5.59674       66.56005
H         53.02867        6.48237       65.15211
H         51.51779        5.44045       67.50113
H         50.85363        6.31244       66.19023
H         51.55279        4.78433       65.93096
N         57.05844        8.74453       63.30381
C         57.44949        8.66908       61.89752
C         58.33867        9.83743       61.45999
O         57.90202       10.55297       60.57117
C         58.07150        7.28760       61.59329
C         57.02007        6.17125       61.73987
C         57.63661        4.81110       61.60552
O         57.54756        3.93344       62.62396
O         58.21324        4.48961       60.57937
H         57.30878        7.96260       63.92831
H         56.52461        8.72971       61.27808
H         58.90294        7.08205       62.29208
H         58.46278        7.26484       60.55218
H         56.23280        6.30165       60.96590
H         56.53219        6.22403       62.73531
N         59.56366       10.14812       61.97766
C         60.24809        9.41944       63.01913
H         61.20349        9.93440       63.25999
H         59.62930        9.38058       63.93751
H         60.52090        8.40734       62.67078
H         60.04695       10.98013       61.60114
Ca        56.26069       12.28836       58.88770
O         56.69831       13.15181       61.56741
H         57.40261       13.67741       61.11743
H         57.20125       12.58670       62.20169
O         53.56838       12.53831       57.90307
H         53.68229       12.17931       56.98772
H         52.59226       12.52019       58.06208
O         58.71064       11.26624       57.59504
H         58.98158       10.84248       56.74314
H         59.10913       12.16991       57.55863
O         56.84424       13.67389       56.30267
H         55.90187       13.38709       56.39793
H         57.22903       13.03894       55.64923
O         58.33776       14.41664       58.80529
H         58.05931       15.15234       59.40435
H         59.23658       14.15833       59.12890
O         54.29205       11.21299       60.79676
H         54.17155       10.23212       60.85489
H         53.39632       11.58938       60.98543
O         55.92584        9.78689       57.28296
H         56.74233        9.52362       56.78935
H         55.41588       10.33911       56.63872
O         54.57426       14.89242       59.59033
H         54.77214       14.65426       60.53009
H         55.45571       15.11971       59.20127

Ca 1.0



