%chk=apoCaM-CA-Ng.loop4.water3.frame35.chk
%nprocshared=20
%mem=10GB
%nosave
#b3lyp/svp scf=(tight,noincore,xqc) Test 
#IOP(5/87=12) Density=Current Pop=(MK,readradii) iop(6/33=2) iop(6/42=6)

apoCaM-CA-Ng.loop4.water3.frame35 

   -3  1 
C         55.46825       82.94379       47.59743
C         54.53390       84.08525       47.83578
O         53.50658       83.85212       48.42958
H         56.44421       83.15256       48.08033
H         55.05009       82.01354       48.04688
H         55.59799       82.78443       46.50957
N         54.83221       85.35347       47.43792
C         53.98554       86.51703       47.70321
C         53.70888       86.70947       49.17975
O         52.56566       86.62252       49.58464
C         52.73480       86.63364       46.78511
C         51.71462       85.51909       46.59669
O         50.91209       85.01300       47.56583
O         51.49798       85.15666       45.45071
H         55.73702       85.51445       46.97053
H         54.56415       87.42724       47.42043
H         53.13904       86.85100       45.76948
H         52.18422       87.55096       47.08684
N         54.73918       87.02339       50.02281
C         54.65145       87.34076       51.45343
C         54.00256       88.70926       51.69932
O         54.70846       89.59594       52.16146
C         54.04867       86.18090       52.29251
C         54.01663       86.49919       53.81510
C         54.80705       84.86763       52.02322
C         55.37111       86.76635       54.47001
H         55.68538       87.05525       49.61179
H         55.70491       87.45252       51.79422
H         53.00032       86.02126       51.97768
H         53.57254       85.64522       54.36087
H         53.36801       87.38322       53.98804
H         54.73796       84.58809       50.95111
H         55.88154       84.96307       52.28233
H         54.36694       84.03774       52.61372
H         55.20768       86.98202       55.54563
H         56.03058       85.87823       54.39405
H         55.87049       87.64858       54.02496
N         52.70004       88.98307       51.39739
C         52.13362       90.32095       51.49576
C         51.83793       90.73731       52.94100
O         52.35688       91.77997       53.31485
C         50.95220       90.51170       50.52150
C         51.35187       90.26099       49.09004
O         52.25672       90.89882       48.57569
O         50.69216       89.34366       48.35997
H         52.09856       88.25536       51.00950
H         52.88581       91.04301       51.09689
H         50.59155       91.56159       50.59629
H         50.12941       89.82389       50.74644
N         51.09237       90.03841       53.86019
C         50.46951       88.73206       53.70019
C         49.14688       88.76751       52.96043
O         48.72775       89.84030       52.55222
H         51.05122       90.43189       54.81382
H         50.24309       88.33147       54.71134
H         51.19791       88.04883       53.23351
N         48.38171       87.64969       52.75535
C         48.61467       86.33430       53.35567
C         49.99948       85.78290       53.07163
O         50.48535       85.97321       51.96688
C         47.51914       85.32333       52.93527
C         47.55597       84.95559       51.47617
O         46.62169       85.24326       50.74613
O         48.59491       84.25732       50.97943
H         47.52323       87.76811       52.19455
H         48.50300       86.48839       54.44754
H         46.52990       85.76610       53.18243
H         47.61731       84.38273       53.51873
N         50.73723       85.12973       54.01749
C         50.23483       84.72534       55.31852
C         50.68496       85.62594       56.43717
O         51.63906       86.37805       56.29563
H         51.68779       84.83993       53.77273
H         50.54219       83.68470       55.54616
H         49.13188       84.66425       55.31607
N         49.97240       85.60860       57.59631
C         50.28173       86.42913       58.76449
C         51.55902       85.98538       59.47228
O         52.02217       86.70573       60.34534
C         49.07624       86.41413       59.73167
C         48.81692       85.02476       60.35572
C         47.45209       84.92066       60.98949
N         46.78450       83.74164       60.96807
O         46.93325       85.89952       61.50564
H         49.12797       85.01863       57.60761
H         50.40628       87.47679       58.40715
H         48.18898       86.72678       59.13695
H         49.21352       87.15844       60.54739
H         49.60428       84.78885       61.10263
H         48.87376       84.22827       59.58836
H         47.20183       82.90393       60.53615
H         45.84623       83.65968       61.38479
N         52.17039       84.80592       59.15477
C         53.41809       84.33286       59.74728
C         53.27015       82.97934       60.43978
O         54.27579       82.50920       60.95592
C         54.52682       84.24824       58.65585
C         54.97996       85.64689       58.22453
C         54.09302       83.42564       57.42688
H         51.73819       84.20098       58.44537
H         53.77379       85.03372       60.53615
H         55.42188       83.75982       59.10152
H         55.36637       86.20564       59.10467
H         55.80790       85.56438       57.48862
H         54.14401       86.22041       57.77376
H         53.27085       83.92838       56.87428
H         54.94096       83.31512       56.72033
H         53.75395       82.41337       57.73193
N         52.08292       82.30497       60.53473
C         51.97135       81.01510       61.21621
C         51.34868       79.92641       60.34921
O         51.93494       78.85330       60.29460
C         51.29529       81.13693       62.60068
C         49.88049       81.64764       62.67339
N         49.25114       81.68589       63.86887
O         49.29379       82.03261       61.67990
H         51.22709       82.73004       60.15522
H         52.98435       80.63774       61.48791
H         51.92041       81.80739       63.23125
H         51.31588       80.12625       63.06614
H         49.72819       81.36341       64.72372
H         48.28236       82.02974       63.93829
N         50.17722       80.09623       59.66029
C         49.53205       79.00587       58.93076
C         49.51698       79.25324       57.43878
O         49.83108       80.35382       57.01578
C         48.06566       78.82659       59.39911
C         47.87116       78.51359       60.86084
C         46.89912       79.20883       61.60463
C         48.59909       77.48551       61.47987
C         46.65298       78.86872       62.93820
C         48.36498       77.16129       62.81783
C         47.38382       77.84513       63.54914
O         47.12940       77.52029       64.83240
H         49.72349       81.01761       59.63518
H         50.09050       78.05922       59.08007
H         47.62021       77.97612       58.84482
H         47.47678       79.73362       59.12889
H         46.30572       79.99167       61.14693
H         49.34669       76.93026       60.93096
H         45.88413       79.39247       63.49314
H         48.93799       76.36804       63.27967
H         47.60288       76.80735       65.28452
N         49.08024       78.25442       56.60340
C         48.85857       78.33639       55.15954
C         50.13986       78.28317       54.32675
O         50.25837       77.39303       53.49561
C         47.95403       79.53477       54.78327
C         46.62990       79.51807       55.57165
C         45.75110       80.67620       55.19951
O         45.33806       80.79545       54.05722
O         45.39946       81.58181       56.13291
H         48.79480       77.36471       57.03944
H         48.28487       77.42481       54.86994
H         47.72823       79.48023       53.69507
H         48.47808       80.49544       54.96787
H         46.84202       79.58026       56.65941
H         46.08119       78.57092       55.37860
N         51.11051       79.22628       54.44424
C         52.26269       79.33830       53.55212
C         53.29882       78.22890       53.72505
O         54.26391       78.23416       52.97150
C         52.95465       80.70602       53.77760
C         52.02633       81.93170       53.62680
C         51.54219       82.21361       52.23249
O         51.82219       83.41625       51.69502
O         50.86323       81.40726       51.61795
H         50.98160       79.95237       55.14389
H         51.89703       79.30572       52.50464
H         53.82083       80.82802       53.09079
H         53.34458       80.71494       54.82070
H         52.61020       82.80853       53.97024
H         51.14183       81.85895       54.28338
N         53.20332       77.26018       54.68053
C         54.22495       76.24188       54.83013
H         55.20186       76.71576       55.06974
H         53.95903       75.54749       55.65489
H         54.32484       75.65644       53.89080
H         52.40496       77.23730       55.32936
Ca        51.34293       84.16380       49.62852
O         49.13969       86.63479       49.26498
H         48.43880       87.07351       48.72190
H         49.98951       86.99424       48.91108
O         50.78658       81.51241       48.38258
H         50.95689       81.06721       47.51534
H         51.45544       81.12009       48.99804
O         48.32604       83.62356       47.97495
H         48.29529       84.41461       47.38064
H         47.57291       83.75981       48.60173

Ca 1.0



