%chk=apoCaM-CA-Ng.loop3.water3.frame804.chk
%nprocshared=20
%mem=10GB
%nosave
#b3lyp/svp scf=(tight,noincore,xqc) Test 
#IOP(5/87=12) Density=Current Pop=(MK,readradii) iop(6/33=2) iop(6/42=6)

apoCaM-CA-Ng.loop3.water3.frame804 

   0  1 
C         10.28591       83.64309       89.19020
C          9.02893       83.42390       89.96918
O          8.70840       84.25629       90.80289
H         10.98333       82.79663       89.34100
H         10.02964       83.73473       88.11315
H         10.77815       84.58801       89.51008
N          8.24818       82.32926       89.73526
C          6.92928       82.16330       90.33850
C          6.88853       80.92792       91.24862
O          7.79866       80.11373       91.17881
C          5.91098       82.05228       89.17050
C          4.57615       82.67727       89.43777
O          4.11119       83.47767       88.64437
O          3.87937       82.37530       90.53346
H          8.56998       81.62505       89.05286
H          6.70559       83.06155       90.94184
H          5.80619       80.98818       88.86491
H          6.30381       82.59488       88.28002
N          5.85054       80.71758       92.11502
C          5.66628       79.49892       92.91064
C          4.39472       78.74101       92.50770
O          4.22304       77.61352       92.94989
C          5.56533       79.84044       94.40864
C          6.86428       80.38568       95.01114
C          6.65272       80.67292       96.50628
C          7.96394       81.02477       97.21611
N          7.73410       81.24715       98.64456
H          5.14584       81.45357       92.21411
H          6.51376       78.79940       92.73992
H          5.31193       78.91225       94.96792
H          4.73853       80.56995       94.55922
H          7.19160       81.31119       94.49015
H          7.65203       79.61058       94.89046
H          6.23744       79.76457       96.99555
H          5.92083       81.50335       96.62417
H          8.41277       81.93591       96.76331
H          8.67746       80.17932       97.09351
H          7.29822       80.39962       99.07721
H          8.64888       81.42900       99.11664
H          7.10745       82.07271       98.78410
N          3.46008       79.29837       91.68988
C          2.25365       78.65146       91.20027
C          2.31610       78.59149       89.67459
O          2.20745       77.50044       89.13209
C          0.97056       79.34047       91.76726
C          0.96327       80.86011       91.84742
O          1.13889       81.61703       90.75041
O          0.82679       81.40198       92.93154
H          3.59784       80.25294       91.37369
H          2.19276       77.59391       91.54815
H          0.85400       78.97941       92.81439
H          0.08714       78.97219       91.20313
N          2.53998       79.70757       88.92181
C          2.65180       79.72378       87.47300
C          1.60940       80.61682       86.81812
O          1.63967       80.72951       85.60157
H          2.68045       80.60408       89.38588
H          2.54914       78.70194       87.04879
H          3.66396       80.10053       87.21072
N          0.63481       81.24456       87.54263
C         -0.46962       81.99941       86.96258
C         -0.56566       83.41145       87.52502
O         -0.41551       83.59449       88.72164
C         -1.77682       81.22272       87.24294
C         -2.13088       81.11401       88.71447
N         -2.06871       79.92742       89.35922
O         -2.48690       82.10789       89.32921
H          0.60487       81.11138       88.55506
H         -0.37315       82.05480       85.85590
H         -1.64543       80.20523       86.81434
H         -2.62804       81.69885       86.71048
H         -1.76534       79.07335       88.87114
H         -2.30707       79.86949       90.36078
N         -0.95375       84.44337       86.72779
C         -1.30323       85.76074       87.24095
C         -0.14863       86.46898       87.90135
O          0.87458       86.64678       87.25508
H         -1.09933       84.26969       85.72183
H         -2.15443       85.66308       87.94994
H         -1.64744       86.38966       86.39215
N         -0.27101       86.97161       89.16997
C          0.78453       87.75688       89.80527
C          1.95747       86.87148       90.29811
O          2.21771       85.82184       89.42070
C          0.24715       88.54058       91.02515
C         -0.86720       89.53386       90.75731
C         -1.03759       90.18618       89.51867
C         -1.74408       89.84696       91.81085
C         -2.06719       91.11757       89.34494
C         -2.77397       90.77357       91.63224
C         -2.93990       91.41253       90.40134
O         -3.93523       92.30908       90.24791
H         -1.17831       86.87883       89.65134
H          1.16440       88.48188       89.05404
H          1.07017       89.10813       91.51214
H         -0.10934       87.79664       91.77051
H         -0.38133       89.99636       88.68271
H         -1.63083       89.37032       92.77695
H         -2.18282       91.61311       88.38905
H         -3.44107       90.99774       92.45511
H         -4.08232       92.77822       89.41435
N          3.14957       87.71935       90.56501
C          4.50411       87.12799       90.63841
C          4.55536       86.08112       91.74112
O          3.87005       85.07509       91.65628
C          5.06515       86.65869       89.25252
C          6.50795       86.10266       89.34517
C          4.99306       87.77303       88.18902
C          7.56650       87.09778       89.83524
H          3.17245       88.58373       89.97845
H          5.16359       87.96501       90.95048
H          4.45896       85.82921       88.86652
H          6.81452       85.74022       88.33879
H          6.50360       85.22612       90.02042
H          5.55167       88.67630       88.51047
H          5.41285       87.41386       87.22531
H          3.94240       88.06324       87.98519
H          7.62552       87.98415       89.17311
H          7.36098       87.42236       90.87409
H          8.56329       86.61216       89.82523
N          5.32215       86.29667       92.84754
C          5.28385       85.42698       94.02280
C          5.59838       86.13166       95.34485
O          5.57506       85.44959       96.36065
C          6.18519       84.19950       93.82164
O          7.54044       84.55451       93.78019
H          5.91081       87.13468       92.84516
H          4.24176       85.06530       94.14801
H          5.89454       83.64858       92.90754
H          6.03840       83.49352       94.66680
H          7.66882       85.09925       92.96294
N          5.85262       87.47529       95.44506
C          6.07726       88.14439       96.72408
C          4.84110       88.02096       97.61023
O          3.80017       87.62486       97.10151
C          6.40944       89.62006       96.45665
H          5.86689       88.06914       94.61163
H          6.94068       87.64867       97.22017
H          5.57861       90.10653       95.90280
H          6.56648       90.19213       97.38019
H          7.33268       89.68672       95.84027
N          4.84352       88.25027       98.95604
C          5.99149       88.63818       99.77195
C          5.55338       89.61114      100.86439
O          4.43649       89.47385      101.34471
C          6.55723       87.38661      100.44336
H          3.96984       88.01703       99.45450
H          6.81952       89.03806       99.16728
H          5.79149       86.89887      101.08248
H          6.89062       86.66433       99.66763
H          7.43644       87.64790      101.07022
N          6.37803       90.53897      101.43018
C          7.74221       90.83108      101.01329
C          7.71708       91.54854       99.68086
O          8.38798       91.11419       98.75550
C          8.44429       91.67075      102.10379
C          9.93642       91.88813      101.81179
C         10.61700       92.53979      102.98211
O         11.16845       93.62052      102.85295
O         10.63984       91.91985      104.17872
H          6.00137       91.06320      102.23724
H          8.32075       89.88352      100.94466
H          8.36309       91.09794      103.05506
H          7.93569       92.65004      102.24534
H         10.05265       92.51429      100.90063
H         10.43212       90.90921      101.63470
N          6.92697       92.64494       99.50730
C          6.80656       93.32180       98.23461
H          6.08199       94.15987       98.32028
H          7.79048       93.72465       97.91854
H          6.42706       92.61671       97.46478
H          6.36084       92.99243      100.29630
Ca         1.65689       83.84475       90.50724
O         -1.35662       84.49834       91.49060
H         -1.15930       83.54370       91.31779
H         -1.91988       84.77995       90.72695
O          1.01063       85.48901       93.24772
H          1.61150       86.27311       93.31310
H          0.10104       85.86396       93.35819
O          2.84714       82.97437       93.91790
H          3.20524       82.41174       93.18740
H          3.38315       82.72120       94.70980

Ca 1.0



