%chk=apoCaM-CA-Ng.loop1.water3.frame751.chk
%nprocshared=20
%mem=10GB
%nosave
#b3lyp/svp scf=(tight,noincore,xqc) Test 
#IOP(5/87=12) Density=Current Pop=(MK,readradii) iop(6/33=2) iop(6/42=6)

apoCaM-CA-Ng.loop1.water3.frame751 

   0  1 
C        -18.25593       43.95490       39.85367
C        -17.84541       45.05022       38.91495
O        -18.71574       45.74672       38.41407
H        -18.94081       43.25686       39.32881
H        -17.37806       43.38328       40.22066
H        -18.78286       44.39483       40.72648
N        -16.52748       45.27574       38.64759
C        -16.06555       46.33599       37.75871
C        -15.23031       45.78955       36.61785
O        -15.02931       44.58937       36.53265
C        -15.39006       47.44920       38.58859
C        -14.21254       47.16445       39.50135
O        -13.52336       46.00390       39.58244
O        -13.85734       48.07364       40.23422
H        -15.82161       44.69313       39.11888
H        -16.93277       46.82843       37.26659
H        -16.19419       47.83456       39.25374
H        -15.10193       48.28838       37.92059
N        -14.76053       46.63601       35.65638
C        -13.94173       46.19807       34.53479
C        -12.63404       46.95295       34.59139
O        -12.65964       48.17457       34.61074
C        -14.68535       46.47252       33.21062
C        -13.99741       45.88433       31.95887
C        -13.99965       44.33995       31.96272
C        -13.39994       43.70766       30.69903
N        -14.14799       44.04054       29.48507
H        -14.99321       47.63735       35.71839
H        -13.75239       45.11130       34.60876
H        -14.80051       47.57146       33.08250
H        -15.70636       46.03589       33.26848
H        -12.96045       46.27420       31.86024
H        -14.58343       46.23704       31.08547
H        -15.04135       43.97139       32.08224
H        -13.39564       43.96630       32.81367
H        -13.41264       42.60265       30.82996
H        -12.34386       44.02315       30.59823
H        -15.15323       43.77374       29.59634
H        -14.06753       45.05790       29.26429
H        -13.74580       43.50379       28.68284
N        -11.44409       46.28827       34.61209
C        -10.17197       47.00392       34.70924
C         -8.99414       46.14719       34.22999
O         -9.14791       44.94101       34.11853
C         -9.98553       47.53819       36.14910
C        -10.08420       46.44758       37.17956
O         -9.28538       45.52497       37.19171
O        -11.06524       46.48986       38.09947
H        -11.45792       45.26313       34.52304
H        -10.24107       47.85598       34.02126
H        -10.78241       48.28209       36.36001
H         -9.02236       48.06027       36.27726
N         -7.77669       46.67194       33.87894
C         -7.40571       48.08133       33.86049
C         -8.16738       48.89894       32.83992
O         -9.02717       48.37554       32.14725
H         -7.04460       46.00656       33.58147
H         -6.33125       48.15526       33.58241
H         -7.50621       48.52859       34.86387
N         -7.88304       50.22122       32.69275
C         -8.54774       51.07585       31.71362
C         -8.32599       50.57940       30.29305
O         -9.29169       50.51094       29.54965
C         -8.15305       52.56258       31.86239
C         -6.70886       52.87564       31.57538
O         -5.72710       52.35418       32.33421
O         -6.42203       53.64030       30.66827
H         -7.17292       50.63078       33.31701
H         -9.64289       51.05511       31.92063
H         -8.39422       52.89910       32.89405
H         -8.79120       53.15230       31.16542
N         -7.09223       50.20008       29.84542
C         -6.86429       49.71129       28.48948
C         -7.54743       48.38517       28.16803
O         -7.49805       47.98672       27.01320
H         -6.28156       50.27451       30.47764
H         -5.77383       49.57098       28.32360
H         -7.21830       50.48805       27.77811
N         -8.17941       47.63981       29.12140
C         -8.86563       46.37185       28.87241
C         -8.18718       45.26114       29.67020
O         -7.27351       45.55084       30.43361
C        -10.36236       46.49486       29.28565
C        -11.08110       47.68755       28.64828
O        -11.07205       45.32550       28.97725
H         -8.16033       47.97125       30.08448
H         -8.80574       46.11460       27.79251
H        -10.40952       46.64450       30.38776
H        -11.07121       45.22237       27.98931
H        -11.06731       47.61428       27.54143
H        -12.13450       47.71713       29.00087
H        -10.60527       48.63205       28.95180
N         -8.57096       43.95373       29.54197
C         -7.92602       42.87253       30.28918
C         -6.45047       42.76706       29.90945
O         -5.69150       42.18678       30.67240
C         -8.69971       41.52183       30.11158
C        -10.18063       41.62085       30.58505
C         -8.01213       40.33051       30.80740
C        -10.37016       41.96552       32.06862
H         -9.32653       43.71989       28.88504
H         -7.95264       43.15134       31.36401
H         -8.72168       41.27901       29.02538
H        -10.68428       40.64921       30.38875
H        -10.71998       42.38020       29.98603
H         -7.88821       40.50917       31.89477
H         -8.60964       39.40529       30.65828
H         -7.01593       40.13235       30.36363
H         -9.89588       41.20773       32.72406
H         -9.96117       42.96805       32.30411
H        -11.45331       41.98569       32.30777
N         -5.96599       43.35482       28.77630
C         -4.54962       43.41453       28.44272
C         -4.27055       42.67384       27.15084
O         -5.18904       42.15271       26.53339
C         -4.08690       44.89933       28.39414
C         -4.80967       45.74059       27.33374
O         -4.29181       45.49708       29.64808
H         -6.62097       43.79656       28.11799
H         -3.94294       42.90868       29.22478
H         -3.00287       44.94913       28.14466
H         -3.55506       45.18910       30.23842
H         -5.89616       45.80850       27.54227
H         -4.40620       46.77552       27.34242
H         -4.65812       45.31435       26.32025
N         -2.98927       42.57935       26.69918
C         -2.60726       41.87023       25.48845
C         -1.60896       40.77438       25.84694
O         -1.85880       39.61849       25.53456
C         -2.06169       42.88690       24.44943
C         -1.82779       42.24482       23.07677
O         -0.87808       43.48797       24.90823
H         -2.24496       43.03971       27.24131
H         -3.49908       41.39675       25.01956
H         -2.84729       43.66909       24.31845
H         -0.78406       44.35299       24.43017
H         -2.77839       41.82637       22.68429
H         -1.46375       43.01188       22.36012
H         -1.08339       41.42957       23.12830
N         -0.45059       41.07831       26.50292
C          0.61060       40.12664       26.80890
C          0.91015       40.12557       28.29859
O          1.19362       41.18176       28.84946
C          1.88116       40.56190       26.05026
C          1.70087       40.45219       24.52768
C          2.81151       41.15624       23.73227
C          4.24136       40.66474       24.00520
N          4.42763       39.26164       23.63920
H         -0.27280       42.05767       26.76777
H          0.34786       39.09545       26.48317
H          2.74032       39.92414       26.35229
H          2.11029       41.61582       26.32487
H          0.76390       40.95844       24.23740
H          1.60907       39.38262       24.23925
H          2.77178       42.24062       23.97564
H          2.58896       41.04808       22.64808
H          4.50522       40.81723       25.07386
H          4.93476       41.28944       23.39953
H          5.43055       39.00674       23.78901
H          3.83565       38.64388       24.23843
H          4.19050       39.11888       22.63067
N          0.95025       38.95529       28.99890
C          1.38970       38.89087       30.39100
C          0.42735       39.60643       31.33392
O          0.87598       40.54462       31.97737
C          1.67072       37.43940       30.85622
C          2.80820       36.79056       30.04701
C          3.07908       35.39126       30.51832
O          2.21001       34.53719       30.44116
O          4.28926       35.06666       31.01177
H          0.74610       38.07742       28.49804
H          2.37481       39.40922       30.45964
H          0.76794       36.80406       30.78984
H          1.98644       37.46543       31.92340
H          3.73126       37.40028       30.16251
H          2.55184       36.74830       28.96826
N         -0.88128       39.26280       31.52846
C         -1.60800       38.21403       30.84378
H         -2.50470       38.65263       30.36001
H         -1.02734       37.71627       30.05227
H         -1.93853       37.45476       31.58418
H         -1.41800       39.79810       32.22910
Ca       -13.34831       44.02737       38.50149
O        -10.49245       42.50708       40.12526
H         -9.71444       42.76132       40.68254
H        -10.14814       41.79463       39.53006
O        -10.29438       45.80270       40.85365
H        -10.99226       46.45018       41.12624
H        -10.21354       45.18531       41.62306
O        -12.86838       44.05225       41.93018
H        -12.73569       43.30927       42.57097
H        -13.55767       44.62491       42.35141

Ca 1.0



