%chk=apoCaM-CA-Ng.loop1.water3.frame1176.chk
%nprocshared=20
%mem=10GB
%nosave
#b3lyp/svp scf=(tight,noincore,xqc) Test 
#IOP(5/87=12) Density=Current Pop=(MK,readradii) iop(6/33=2) iop(6/42=6)

apoCaM-CA-Ng.loop1.water3.frame1176 

   0  1 
C         21.62348       42.36248       21.50916
C         22.09928       43.50391       22.35349
O         21.27290       44.24998       22.86077
H         20.51454       42.36654       21.43387
H         22.04846       42.45128       20.48720
H         21.95014       41.40525       21.96427
N         23.43644       43.71911       22.52061
C         23.96647       44.83219       23.29947
C         24.56086       45.87284       22.37450
O         25.70268       46.28084       22.53357
C         24.91688       44.33963       24.41690
C         26.16966       43.62975       23.95957
O         26.42354       43.47144       22.77593
O         27.03399       43.16969       24.88350
H         24.09398       43.09289       22.03386
H         23.13721       45.35740       23.81140
H         24.34832       43.64778       25.07480
H         25.22497       45.21477       25.03001
N         23.77421       46.37924       21.38550
C         24.17658       47.47105       20.51090
C         24.43930       48.72549       21.33841
O         25.53604       49.25403       21.21717
C         23.14052       47.72232       19.38479
C         22.96858       46.47417       18.49717
C         21.98172       46.71781       17.35146
C         21.80925       45.44378       16.51061
N         20.87572       45.66296       15.40726
H         22.82937       45.98456       21.27684
H         25.11860       47.18505       19.98951
H         23.50843       48.55838       18.75002
H         22.15241       48.01926       19.78642
H         22.58947       45.62545       19.10405
H         23.95551       46.18786       18.07164
H         22.35994       47.54125       16.70729
H         20.99450       47.01291       17.77007
H         21.42402       44.62309       17.15703
H         22.79473       45.13051       16.09911
H         19.93941       45.94512       15.77812
H         21.24324       46.40582       14.76948
H         20.77154       44.77378       14.86681
N         23.56403       49.25577       22.25001
C         22.23873       48.73222       22.58347
C         22.22831       48.11453       23.97329
O         23.22068       48.17016       24.68478
C         21.16538       49.82029       22.38787
C         21.44816       51.06735       23.17138
O         21.50674       51.03908       24.51627
O         21.63634       52.11602       22.57835
H         23.89006       50.07301       22.78981
H         21.95637       47.90815       21.91935
H         20.16050       49.43681       22.66431
H         21.13577       50.08165       21.30672
N         21.13027       47.41530       24.37533
C         21.05028       46.65611       25.61095
C         21.12386       47.52972       26.86166
O         20.19498       48.55804       26.72784
H         20.32036       47.35894       23.74018
H         21.85115       45.88922       25.64534
H         20.07141       46.12566       25.62252
N         20.81176       46.68649       28.02771
C         20.56566       47.33732       29.33638
C         19.64047       46.41395       30.14576
O         19.52184       45.25062       29.78454
C         21.89340       47.53318       30.13442
C         22.85304       48.55210       29.57763
O         22.50428       49.85046       29.49971
O         23.97558       48.21389       29.24045
H         21.49799       45.90025       28.11523
H         20.03215       48.29583       29.18044
H         22.40302       46.54764       30.21160
H         21.69236       47.85597       31.16899
N         18.94930       46.80897       31.26043
C         18.86912       48.17142       31.75769
C         18.06588       49.05806       30.83971
O         17.45324       48.57398       29.89867
H         18.41367       46.09432       31.77829
H         19.87577       48.58812       31.91939
H         18.35460       48.18298       32.74312
N         18.04390       50.39894       31.06672
C         17.29574       51.35215       30.25159
C         17.62885       51.19794       28.77567
O         18.78665       51.01327       28.44163
C         17.55984       52.80009       30.73871
C         16.65440       53.80948       30.02877
O         18.89984       53.16624       30.52596
H         18.60156       50.75249       31.85906
H         16.21183       51.14445       30.39423
H         17.31313       52.87203       31.82405
H         19.43615       52.78820       31.26925
H         15.58646       53.55920       30.20412
H         16.84628       54.83026       30.42135
H         16.84589       53.80998       28.93686
N         16.63166       51.27220       27.84713
C         16.76858       51.08418       26.40478
C         17.79240       52.03584       25.79607
O         18.98517       51.81236       25.94691
C         17.10376       49.60607       26.04198
C         16.11265       48.61116       26.69491
C         17.15445       49.40757       24.50945
C         16.57272       47.15226       26.58708
H         15.67954       51.47996       28.18508
H         15.77168       51.30547       25.96198
H         18.09382       49.39801       26.46153
H         15.09945       48.72899       26.25476
H         16.03861       48.82568       27.77926
H         17.89610       50.08485       24.03900
H         17.46559       48.37947       24.23885
H         16.15808       49.61001       24.06114
H         15.85859       46.49793       27.12903
H         16.61594       46.80538       25.53613
H         17.57609       47.03207       27.05208
N         17.38355       53.07463       25.01802
C         18.29985       53.88586       24.22549
C         18.27197       55.33751       24.68638
O         17.35026       56.06093       24.34944
C         17.98005       53.68449       22.71543
C         16.51137       53.94897       22.32884
O         18.26025       52.34975       22.37201
H         16.37507       53.26842       24.95513
H         19.34686       53.53518       24.36523
H         18.61799       54.37862       22.11808
H         19.12417       52.33857       21.88661
H         16.37599       53.78443       21.24025
H         15.82604       53.24020       22.84105
H         16.18953       54.98193       22.55600
N         19.25912       55.81209       25.50917
C         19.30636       57.17851       26.04362
C         20.53430       57.35592       26.92964
O         20.68533       56.60592       27.88097
C         18.01564       57.55431       26.83764
C         17.64437       56.55494       27.93797
O         18.15289       58.82959       27.41068
H         20.00544       55.15742       25.78914
H         19.38458       57.88960       25.19337
H         17.14402       57.57574       26.15040
H         18.17932       59.48123       26.66202
H         18.41743       56.49460       28.72836
H         16.69538       56.87118       28.42065
H         17.48717       55.54861       27.49884
N         21.45281       58.34092       26.67652
C         22.64607       58.56633       27.49795
C         23.48743       57.30075       27.46798
O         23.76223       56.71159       28.50609
C         22.24330       58.98691       28.93574
C         21.42742       60.29318       28.97795
C         20.75489       60.44547       30.35410
C         19.95779       61.74926       30.51743
N         20.83430       62.91087       30.67211
H         21.31195       58.95630       25.86220
H         23.24504       59.39053       27.04906
H         23.14706       59.11956       29.57087
H         21.64471       58.17284       29.38912
H         20.61339       60.26824       28.22124
H         22.10190       61.14252       28.73812
H         21.49785       60.36607       31.17634
H         20.03752       59.60027       30.45492
H         19.34033       61.65991       31.43889
H         19.26452       61.89281       29.65852
H         21.44793       62.77903       31.50975
H         21.42173       63.05578       29.82171
H         20.24653       63.76179       30.82640
N         23.84104       56.78259       26.26029
C         24.43635       55.46666       26.08042
C         23.38844       54.52385       25.49082
O         23.03546       53.59226       26.19983
C         25.73666       55.53475       25.26014
C         26.88612       56.16239       26.05764
C         28.13236       56.23271       25.22184
O         29.23371       55.55026       25.58935
O         28.15412       56.91121       24.20701
H         23.57954       57.31850       25.42454
H         24.70174       55.02564       27.06927
H         25.57562       56.12142       24.33623
H         26.04578       54.50141       24.98594
H         27.08379       55.53309       26.95393
H         26.61826       57.18565       26.39530
N         22.79590       54.64054       24.26384
C         23.09193       55.61150       23.23289
H         24.13257       55.49622       22.87695
H         22.43791       55.42288       22.35477
H         22.88284       56.64207       23.56349
H         22.06541       53.95423       24.03625
Ca        21.34251       50.22829       27.66234
O         24.32953       50.51685       26.36514
H         24.12512       50.39341       27.32539
H         25.11131       49.93134       26.20371
O         22.94768       52.83957       29.27946
H         23.74557       52.43694       29.70437
H         22.67724       53.56808       29.89318
O         20.27906       53.45825       27.95085
H         21.05981       54.05664       27.85710
H         19.52089       54.06729       28.13305

Ca 1.0



