%chk=apoCaM-CA-Ng.loop3.water5.frame144.chk
%nprocshared=20
%mem=10GB
%nosave
#b3lyp/svp scf=(tight,noincore,xqc) Test 
#IOP(5/87=12) Density=Current Pop=(MK,readradii) iop(6/33=2) iop(6/42=6)

apoCaM-CA-Ng.loop3.water5.frame144 

   0  1 
C         49.46053       22.75184        6.25039
C         49.02144       21.43501        6.82405
O         49.28274       21.17881        7.98743
H         50.50904       22.69929        5.88909
H         48.79428       23.04872        5.41215
H         49.38253       23.53762        7.03106
N         48.34391       20.54183        6.05199
C         47.79306       19.27709        6.52634
C         48.85743       18.39205        7.18112
O         48.66011       17.90572        8.28657
C         46.54315       19.57913        7.38780
C         45.72085       18.36606        7.71809
O         45.25308       17.67800        6.82436
O         45.44354       18.06823        9.00146
H         48.18028       20.77736        5.06101
H         47.43260       18.72925        5.62792
H         45.88406       20.25706        6.80066
H         46.83330       20.11106        8.31802
N         50.03419       18.16305        6.52729
C         51.09924       17.27383        7.00018
C         52.31002       18.07046        7.45776
O         53.41877       17.55153        7.47299
C         51.48371       16.32895        5.85007
C         50.28153       15.50397        5.39105
C         50.65525       14.62168        4.20412
C         49.42442       13.86438        3.70127
N         49.74006       13.11034        2.49143
H         50.19322       18.65521        5.63524
H         50.76981       16.66355        7.87073
H         52.29827       15.64233        6.16923
H         51.85667       16.94137        4.99646
H         49.46795       16.19016        5.06859
H         49.91135       14.88110        6.23434
H         51.45058       13.90190        4.50037
H         51.04259       15.26761        3.38587
H         48.61221       14.58965        3.46903
H         49.06347       13.17456        4.49660
H         48.88986       12.58401        2.18782
H         50.01801       13.77075        1.72868
H         50.51753       12.43630        2.67634
N         52.13001       19.31762        7.96217
C         53.17999       20.18154        8.47490
C         54.01655       19.46992        9.53042
O         53.45828       18.85269       10.42225
C         52.51957       21.45382        9.03619
C         53.53837       22.48673        9.37240
O         54.16545       22.46151       10.55092
O         53.95566       23.22138        8.49729
H         51.17090       19.67597        7.99878
H         53.83471       20.48581        7.62779
H         51.86523       21.22206        9.90725
H         51.87036       21.89633        8.24829
N         55.37812       19.48943        9.44673
C         56.28593       18.76326       10.32803
C         56.29642       19.14651       11.80765
O         57.00515       18.47737       12.54615
H         55.80278       19.99359        8.65743
H         57.32127       18.89330        9.94406
H         56.03128       17.68511       10.25474
N         55.55137       20.16378       12.32950
C         55.36859       20.37347       13.76962
C         53.92299       20.80856       14.08368
O         53.68778       21.50827       15.05905
C         56.45245       21.30409       14.36112
C         56.23630       22.74986       14.01727
N         56.04192       23.65668       15.00125
O         56.23109       23.10750       12.85074
H         54.97519       20.70342       11.69094
H         55.50672       19.39058       14.27295
H         57.46087       20.99021       14.01417
H         56.43815       21.20220       15.46803
H         56.04556       23.38701       15.99633
H         55.88885       24.63882       14.76593
N         52.90219       20.39402       13.27754
C         51.48586       20.67684       13.45556
C         51.07877       22.14004       13.38843
O         50.02413       22.46085       13.91573
H         53.12973       19.78139       12.49441
H         51.14002       20.23342       14.40994
H         50.93017       20.15824       12.64011
N         51.77272       23.05090       12.65340
C         51.36889       24.44853       12.48289
C         52.55320       25.38683       12.67869
O         53.69611       24.95587       12.60441
C         50.67973       24.63110       11.11235
C         49.24814       24.13590       11.15609
C         48.25034       24.98365       11.67038
C         48.88400       22.86118       10.69217
C         46.91455       24.57546       11.70421
C         47.54432       22.44853       10.73605
C         46.55453       23.30986       11.23410
O         45.25849       22.93680       11.26088
H         52.59702       22.72108       12.15280
H         50.64675       24.73488       13.27740
H         51.26499       24.12251       10.31423
H         50.63300       25.70309       10.82173
H         48.50760       25.97159       12.03191
H         49.63331       22.18647       10.30605
H         46.15831       25.24828       12.09041
H         47.27318       21.46261       10.38054
H         44.95986       22.08327       10.91597
N         52.33156       26.69286       13.02347
C         53.40220       27.59220       13.45480
C         53.89838       27.07353       14.78577
O         55.06292       26.78912       14.91923
C         52.94583       29.07806       13.60239
C         52.18266       29.60091       12.35903
C         54.15475       29.98937       13.91999
C         52.96442       29.56415       11.04553
H         51.35725       27.01764       13.08118
H         54.21632       27.57855       12.69325
H         52.23212       29.15438       14.45093
H         51.84677       30.64471       12.54327
H         51.26378       28.99853       12.22794
H         54.93344       29.91916       13.12995
H         53.83269       31.04876       14.00501
H         54.62955       29.70841       14.88132
H         52.27738       29.82745       10.21393
H         53.80000       30.29245       11.05892
H         53.36360       28.55302       10.84314
N         53.05345       26.84946       15.82176
C         53.52621       26.15109       17.01466
C         54.58224       26.93142       17.79104
O         55.30877       26.31761       18.56067
C         52.35641       25.76479       17.90264
O         51.44507       25.01635       17.14449
H         52.05478       27.07807       15.70918
H         53.99834       25.20355       16.65876
H         51.87347       26.69544       18.27354
H         52.73679       25.14920       18.74614
H         50.71115       24.76604       17.75943
N         54.77212       28.26768       17.57948
C         55.87369       29.05187       18.12506
C         57.19457       28.41465       17.75073
O         58.05454       28.22023       18.60073
C         55.72222       29.30238       19.62921
H         54.14231       28.75965       16.93288
H         55.84900       30.04921       17.63240
H         55.69154       28.35231       20.19995
H         56.57577       29.91542       19.99526
H         54.78915       29.87439       19.81545
N         57.40503       28.05456       16.45533
C         58.64951       27.47039       15.98743
C         58.93702       27.89829       14.55303
O         58.05586       28.41533       13.87897
C         58.60747       25.94014       16.12813
H         56.64960       28.22964       15.78529
H         59.46339       27.86229       16.63406
H         57.99247       25.48619       15.32545
H         59.62963       25.51112       16.07251
H         58.16614       25.64743       17.10700
N         60.19173       27.76864       14.04287
C         60.58771       28.15527       12.68666
C         60.28079       29.62773       12.37727
O         60.24373       29.98841       11.20808
C         59.98835       27.20953       11.60898
C         60.07157       25.71554       12.00068
C         59.46370       24.79521       10.96782
O         60.16655       23.99848       10.36830
O         58.13050       24.76071       10.77584
H         60.92509       27.39356       14.66112
H         61.68679       28.01701       12.61424
H         60.54362       27.36494       10.65588
H         58.95230       27.50552       11.40419
H         59.53178       25.53348       12.95551
H         61.13680       25.44853       12.16170
N         60.05617       30.53455       13.37628
C         59.72135       31.92717       13.14796
H         58.74983       32.15363       13.63783
H         60.50309       32.57201       13.60103
H         59.63356       32.17828       12.07027
H         60.13077       30.24331       14.36023
Ca        55.89143       24.64406       10.40161
O         56.55856       24.97531        7.78284
H         55.99020       24.70930        7.01902
H         56.95529       25.84113        7.51805
O         56.59142       26.06232       12.53978
H         56.47327       26.60459       13.32912
H         57.47037       26.39116       12.28543
O         56.57837       27.30271        9.89870
H         57.11619       27.58130        9.11814
H         56.85852       27.91351       10.62330
O         56.69138       22.27566        9.44023
H         57.47488       21.73552        9.70331
H         56.56040       22.11200        8.47323
O         53.52697       26.06832        9.55222
H         53.27993       25.48130        8.79852
H         52.74033       26.65646        9.65166

Ca 1.0



