%chk=apoCaM-CA-Ng.loop3.water4.frame227.chk
%nprocshared=20
%mem=10GB
%nosave
#b3lyp/svp scf=(tight,noincore,xqc) Test 
#IOP(5/87=12) Density=Current Pop=(MK,readradii) iop(6/33=2) iop(6/42=6)

apoCaM-CA-Ng.loop3.water4.frame227 

   0  1 
C         42.26211       49.29709      102.51600
C         42.88380       50.39211      103.33007
O         42.18575       51.33006      103.68093
H         41.18751       49.51082      102.32414
H         42.78646       49.20900      101.54215
H         42.33805       48.33544      103.06510
N         44.20390       50.32645      103.68014
C         44.90096       51.32300      104.49657
C         45.07691       52.67429      103.80319
O         45.55367       53.59156      104.45582
C         44.22504       51.46653      105.88338
C         44.21883       50.15196      106.61248
O         43.05562       49.57193      106.95404
O         45.27074       49.60191      106.89676
H         44.74383       49.50100      103.37870
H         45.93638       50.96272      104.68602
H         43.18834       51.84781      105.78577
H         44.78054       52.19862      106.50766
N         44.77451       52.86723      102.48391
C         44.91776       54.15645      101.80481
C         43.57261       54.66216      101.30119
O         43.54306       55.68332      100.62501
C         45.89774       54.04458      100.62006
C         47.31370       53.62421      101.04579
C         48.34865       53.84528       99.92672
C         48.08427       53.03363       98.64881
N         49.08721       53.34194       97.62837
H         44.42516       52.07883      101.92106
H         45.31689       54.93401      102.49220
H         45.97073       55.05331      100.15567
H         45.49990       53.33483       99.86314
H         47.31296       52.56516      101.38425
H         47.63323       54.26161      101.89909
H         49.35304       53.57605      100.32010
H         48.36145       54.92765       99.67036
H         47.08281       53.27943       98.23625
H         48.11308       51.94739       98.88548
H         50.04545       53.11209       97.97820
H         48.89221       52.77672       96.77078
H         49.03997       54.35693       97.37713
N         42.41347       54.01633      101.60561
C         41.10394       54.42398      101.13092
C         40.80687       55.86769      101.51923
O         40.98105       56.24306      102.66940
C         40.03362       53.43101      101.64254
C         38.68452       53.79443      101.10998
O         38.06516       53.06339      100.17162
O         38.15067       54.81741      101.48741
H         42.44865       53.18951      102.20862
H         41.09446       54.34009      100.02065
H         39.99982       53.40193      102.75395
H         40.30237       52.41652      101.27398
N         40.32290       56.71906      100.57152
C         40.03113       58.12943      100.77004
C         39.12193       58.41707      101.94849
O         39.50734       59.22139      102.78475
H         40.15055       56.34181       99.62870
H         39.55165       58.51786       99.84373
H         40.98665       58.68063      100.90329
N         37.91165       57.80404      102.09301
C         36.98968       58.10044      103.19364
C         37.00044       57.05063      104.30694
O         36.20359       57.17136      105.22764
C         35.56179       58.32539      102.64942
C         34.86693       57.08534      102.12919
N         33.58348       57.16677      101.71876
O         35.43571       56.00356      102.10155
H         37.63480       57.10609      101.39218
H         37.28732       59.05473      103.68074
H         35.58744       59.09916      101.85133
H         34.93976       58.72000      103.48193
H         33.07456       58.06270      101.74565
H         33.09550       56.32244      101.39444
N         37.90918       56.03781      104.33421
C         37.99939       55.07224      105.41603
C         36.88583       54.04964      105.40075
O         36.21025       53.88041      106.40540
H         38.62977       55.98752      103.60553
H         38.06333       55.59989      106.39358
H         38.94200       54.49608      105.29062
N         36.70849       53.26823      104.29982
C         35.84353       52.09444      104.24235
C         34.76543       52.24322      103.19322
O         35.08404       52.46042      102.03250
C         36.71056       50.87451      103.87245
C         37.61438       50.47917      105.00581
C         37.09927       49.69218      106.04709
C         38.96078       50.87381      105.03829
C         37.91780       49.29848      107.10505
C         39.77631       50.49217      106.10959
C         39.25498       49.69947      107.14577
O         40.02083       49.31807      108.18670
H         37.28369       53.46876      103.47099
H         35.35334       51.90140      105.22239
H         37.30103       51.11089      102.95800
H         36.08098       49.99300      103.61710
H         36.06429       49.37293      106.03099
H         39.37242       51.48534      104.24553
H         37.51031       48.68226      107.89624
H         40.80897       50.81253      106.13158
H         40.94356       49.58787      108.27710
N         33.45574       52.06346      103.53932
C         32.35478       52.05838      102.58408
C         31.45351       53.25224      102.85863
O         31.37338       54.11190      101.99353
C         31.67850       50.64016      102.51594
C         30.48569       50.54701      101.52861
C         31.22347       50.07396      103.87464
C         30.79841       50.97333      100.09659
H         33.22993       51.90053      104.53115
H         32.76291       52.21148      101.56922
H         32.46708       49.94454      102.14851
H         29.64176       51.15017      101.89756
H         30.13598       49.49149      101.49100
H         30.39220       50.66018      104.30946
H         30.85539       49.03344      103.74164
H         32.06468       50.01485      104.59376
H         29.88949       50.83754       99.47181
H         31.07501       52.04447      100.05073
H         31.61686       50.35234       99.67761
N         30.79606       53.42662      104.04139
C         30.01631       54.63422      104.32702
C         28.84276       54.86081      103.37424
O         28.33076       55.97071      103.34596
C         29.52449       54.62880      105.78645
O         28.76654       53.48234      106.07931
H         30.90831       52.72090      104.78110
H         30.70294       55.50161      104.20051
H         28.94291       55.54738      106.02151
H         30.41353       54.62391      106.45246
H         27.99858       53.45928      105.45288
N         28.37631       53.87139      102.56096
C         27.33333       54.02783      101.55334
C         27.76187       55.03677      100.50371
O         27.01667       55.96130      100.20524
C         25.97724       54.37185      102.19281
H         28.79520       52.94164      102.63884
H         27.21726       53.04864      101.03724
H         26.00536       55.35730      102.70245
H         25.18723       54.41127      101.41220
H         25.69769       53.59569      102.93506
N         28.99547       54.93425       99.93176
C         29.50187       55.89865       98.96518
C         30.21417       55.21581       97.81634
O         30.46774       54.02046       97.87574
C         30.49054       56.82693       99.67029
H         29.62680       54.18906      100.25855
H         28.66788       56.51303       98.56235
H         30.87566       57.60544       98.97937
H         29.99723       57.33301      100.52708
H         31.34336       56.23166      100.04979
N         30.58240       55.95027       96.72749
C         31.39870       55.45947       95.62117
C         30.86713       54.14266       95.06041
O         31.65952       53.26150       94.75036
C         32.86093       55.29673       96.08879
C         33.45410       56.56075       96.73151
C         34.77553       56.19535       97.32506
O         35.75936       56.07297       96.61380
O         34.76752       55.66915       98.56382
H         30.28198       56.93635       96.68116
H         31.38158       56.23040       94.81936
H         33.50440       54.99405       95.23292
H         32.88497       54.48010       96.84208
H         32.80309       56.89782       97.56550
H         33.54732       57.39622       96.00511
N         29.52805       53.90666       94.98469
C         28.97512       52.63194       94.56953
H         28.29036       52.78560       93.71250
H         29.75827       51.90313       94.26900
H         28.40842       52.18860       95.41609
H         28.86563       54.63758       95.28272
Ca        36.31703       54.25667       99.39741
O         35.55643       51.24371       99.28450
H         35.40412       50.47558       99.88977
H         36.10275       50.87527       98.54589
O         37.90842       56.43819       98.60679
H         38.32720       55.93189       97.86561
H         37.60719       57.28716       98.19913
O         36.02209       52.91877       96.71657
H         36.79532       52.73942       96.12562
H         35.44779       53.53210       96.19500
O         33.47770       53.46263       99.58645
H         33.51411       54.13878      100.30871
H         32.69159       53.72441       99.05075

Ca 1.0



