%chk=apoCaM-CA-Ng.loop4.water4.frame928.chk
%nprocshared=20
%mem=10GB
%nosave
#b3lyp/svp scf=(tight,noincore,xqc) Test 
#IOP(5/87=12) Density=Current Pop=(MK,readradii) iop(6/33=2) iop(6/42=6)

apoCaM-CA-Ng.loop4.water4.frame928 

   -3  1 
C        -14.79127      -14.58958        0.10808
C        -16.05578      -15.16132        0.67903
O        -17.13183      -14.82240        0.20890
H        -14.15430      -15.41142       -0.28319
H        -15.01310      -13.88665       -0.72314
H        -14.23591      -14.04476        0.90004
N        -15.98860      -16.06493        1.69736
C        -17.14393      -16.70745        2.31836
C        -17.94937      -17.47153        1.28156
O        -19.14779      -17.25516        1.15267
C        -18.01363      -15.68954        3.09061
C        -17.24023      -14.98660        4.16857
O        -17.13936      -13.77069        4.15932
O        -16.67459      -15.69339        5.16529
H        -15.05527      -16.33828        2.04279
H        -16.76677      -17.45296        3.05370
H        -18.86196      -16.22184        3.57190
H        -18.43677      -14.94557        2.38682
N        -17.32996      -18.37434        0.47427
C        -18.05042      -19.11692       -0.55221
C        -18.88701      -20.19138        0.13780
O        -18.27515      -21.04283        0.76910
C        -17.05851      -19.76977       -1.57349
C        -16.17416      -18.67922       -2.24664
C        -17.84098      -20.56708       -2.63987
C        -15.12353      -19.23313       -3.21232
H        -16.31290      -18.50792        0.58142
H        -18.65057      -18.40269       -1.14571
H        -16.39267      -20.47660       -1.02868
H        -15.61323      -18.11895       -1.47121
H        -16.81540      -17.95256       -2.79101
H        -17.15760      -21.09234       -3.33570
H        -18.46375      -21.35671       -2.17155
H        -18.50167      -19.89065       -3.22317
H        -14.50113      -18.39653       -3.59480
H        -14.46181      -19.95694       -2.69114
H        -15.59212      -19.72190       -4.08954
N        -20.24885      -20.30331        0.07009
C        -21.19698      -19.40226       -0.58208
C        -22.32725      -19.10612        0.39673
O        -22.90591      -20.05656        0.90821
C        -21.75019      -20.10302       -1.83775
C        -22.66242      -19.23539       -2.66926
O        -22.93565      -17.96247       -2.31999
O        -23.14733      -19.68831       -3.69303
H        -20.65440      -21.14448        0.51273
H        -20.71922      -18.46162       -0.90895
H        -22.29101      -21.02897       -1.54263
H        -20.89478      -20.39509       -2.48323
N        -22.71184      -17.83042        0.70120
C        -23.73917      -17.54955        1.69621
C        -24.98224      -16.91893        1.10750
O        -25.60540      -17.51942        0.24338
H        -22.25284      -17.03400        0.23432
H        -23.29937      -16.90833        2.48954
H        -24.07864      -18.47998        2.19866
N        -25.46154      -15.75094        1.62415
C        -26.77738      -15.19723        1.29714
C        -26.95188      -14.70224       -0.13623
O        -28.06439      -14.30551       -0.45866
C        -27.16263      -14.07780        2.30141
C        -26.30114      -12.84041        2.22788
O        -24.97886      -12.90072        2.47503
O        -26.81089      -11.76014        1.97798
H        -24.92189      -15.31919        2.38720
H        -27.51898      -16.01290        1.45354
H        -27.10906      -14.48379        3.33438
H        -28.22147      -13.78584        2.11944
N        -25.94200      -14.67753       -1.05547
C        -26.14700      -14.17305       -2.40979
C        -26.39868      -12.67096       -2.47084
O        -26.64727      -12.16990       -3.55733
H        -25.00868      -15.03551       -0.81041
H        -26.99838      -14.72054       -2.87090
H        -25.24152      -14.37824       -3.02054
N        -26.30632      -11.88508       -1.35917
C        -26.46433      -10.43577       -1.32170
C        -25.40893       -9.74253       -2.16939
O        -25.71568       -8.80049       -2.88709
C        -27.90806       -9.98512       -1.64440
C        -28.93200      -10.59275       -0.67254
C        -30.31625      -10.05477       -0.93543
N        -31.33403      -10.88259       -1.26820
O        -30.52414       -8.85445       -0.83423
H        -26.05254      -12.31825       -0.46459
H        -26.25033      -10.11803       -0.27633
H        -28.17752      -10.25763       -2.68765
H        -27.95333       -8.87740       -1.55091
H        -28.65504      -10.33469        0.37212
H        -28.92376      -11.69901       -0.77193
H        -31.18612      -11.89838       -1.35432
H        -32.27824      -10.50490       -1.43858
N        -24.11877      -10.17431       -2.11176
C        -23.00069       -9.52589       -2.78981
C        -21.83640       -9.29398       -1.83021
O        -20.79547       -8.84932       -2.29875
C        -22.50133      -10.39568       -3.98598
C        -22.05749      -11.80846       -3.56616
C        -23.55481      -10.48464       -5.09496
H        -23.91981      -11.02822       -1.56942
H        -23.30221       -8.53819       -3.20429
H        -21.62071       -9.88367       -4.43636
H        -21.26453      -11.76094       -2.79391
H        -22.91059      -12.39622       -3.16825
H        -21.63960      -12.34979       -4.44128
H        -24.46717      -11.00365       -4.73858
H        -23.82775       -9.46558       -5.44340
H        -23.14196      -11.04186       -5.96373
N        -21.89065       -9.61561       -0.50109
C        -20.67501       -9.71385        0.29447
C        -20.96543       -9.86756        1.77470
O        -21.71617      -10.76032        2.14674
C        -19.91681      -10.98467       -0.16007
C        -18.64140      -11.19172        0.61062
N        -18.49957      -12.26170        1.42568
O        -17.73464      -10.38092        0.50502
H        -22.77628       -9.91369       -0.06798
H        -20.03986       -8.81339        0.13969
H        -19.66408      -10.94078       -1.23832
H        -20.59006      -11.86105       -0.01347
H        -19.26517      -12.94133        1.54136
H        -17.63035      -12.40339        1.95686
N        -20.29791       -9.09681        2.68314
C        -20.31544       -9.38230        4.11386
C        -19.52511       -8.35023        4.89328
O        -18.38349       -8.07807        4.54644
C        -19.69116      -10.77987        4.37834
C        -19.62981      -11.12741        5.84735
C        -20.79656      -11.12693        6.63036
C        -18.40281      -11.46047        6.44581
C        -20.73466      -11.43922        7.98983
C        -18.34679      -11.78869        7.80285
C        -19.50849      -11.77354        8.58059
O        -19.43564      -12.08279        9.89043
H        -19.68769       -8.33985        2.33554
H        -21.36653       -9.37524        4.47219
H        -18.66922      -10.81043        3.93737
H        -20.28787      -11.56907        3.88259
H        -21.75403      -10.87556        6.19353
H        -17.48982      -11.47454        5.86331
H        -21.64120      -11.42315        8.58107
H        -17.39883      -12.05501        8.25095
H        -20.21634      -12.08056       10.46244
N        -20.05056       -7.82566        6.03722
C        -19.31830       -6.93281        6.91966
C        -19.03486       -7.67736        8.21788
O        -19.96750       -7.84330        8.99322
C        -20.17332       -5.67804        7.21920
C        -20.52341       -4.86309        5.96906
C        -21.47550       -3.75325        6.32169
O        -22.69074       -4.04354        6.82825
O        -21.16164       -2.58813        6.14095
H        -20.98806       -8.13283        6.33944
H        -18.37333       -6.61637        6.44818
H        -19.64119       -5.02154        7.94299
H        -21.12536       -6.01268        7.69153
H        -21.02175       -5.50699        5.21375
H        -19.59030       -4.45071        5.52796
N        -17.82698       -8.22839        8.54790
C        -16.63292       -8.30283        7.70550
C        -16.03122       -6.94034        7.42726
O        -15.72203       -6.21873        8.36531
C        -15.57050       -9.18931        8.40918
C        -14.25707       -9.41061        7.63185
C        -14.43319      -10.18577        6.35516
O        -15.07911       -9.72539        5.42911
O        -13.83943      -11.38591        6.21484
H        -17.78970       -8.71704        9.45760
H        -16.91676       -8.80577        6.75898
H        -16.01027      -10.18430        8.63074
H        -15.31000       -8.71810        9.38263
H        -13.57798       -9.99196        8.29300
H        -13.76137       -8.44119        7.41372
N        -15.78483       -6.55640        6.14203
C        -15.14952       -5.30641        5.78296
H        -14.20762       -5.52346        5.23490
H        -15.82468       -4.72806        5.11928
H        -14.90236       -4.68660        6.66948
H        -16.03241       -7.19137        5.36926
Ca       -12.28505      -11.64171        3.40416
O        -13.75637      -14.03657        4.74217
H        -14.45648      -13.81720        4.07865
H        -13.39083      -14.90356        4.43571
O        -13.07771       -9.76405        1.05957
H        -13.84201       -9.23092        0.72520
H        -12.29639       -9.42315        0.55620
O        -15.44132      -11.08255        2.90722
H        -15.64238      -10.61836        2.05728
H        -15.30423      -12.02700        2.64612
O        -12.03750       -8.60773        4.04460
H        -12.34296       -7.92253        3.39843
H        -11.70306       -8.08925        4.81888

Ca 1.0



