%chk=apoCaM-CA-Ng.loop2.water3.frame140.chk
%nprocshared=20
%mem=10GB
%nosave
#b3lyp/svp scf=(tight,noincore,xqc) Test 
#IOP(5/87=12) Density=Current Pop=(MK,readradii) iop(6/33=2) iop(6/42=6)

apoCaM-CA-Ng.loop2.water3.frame140 

   -2  1 
C         34.12333       58.14936      -16.13270
C         34.48515       58.98800      -17.32478
O         35.41944       58.64559      -18.03491
H         33.09414       57.75183      -16.26365
H         34.82112       57.29127      -16.02389
H         34.16006       58.76161      -15.20759
N         33.77444       60.11710      -17.59977
C         33.99838       60.95687      -18.77290
C         34.53886       62.34177      -18.40101
O         34.71060       63.13969      -19.30471
C         32.65674       61.05396      -19.53867
C         32.75194       61.83200      -20.82256
O         33.49684       61.46116      -21.71556
O         32.01331       62.94607      -20.99032
H         33.01751       60.38704      -16.95099
H         34.75102       60.49019      -19.44648
H         31.89732       61.53093      -18.88019
H         32.30132       60.03004      -19.78735
N         34.83437       62.69459      -17.11341
C         35.32931       63.99937      -16.65863
C         36.79227       64.33144      -17.08739
O         37.33900       65.22390      -16.16593
C         34.33943       65.12850      -16.96874
H         34.67380       62.00109      -16.36843
H         35.37577       63.91923      -15.54806
H         33.34726       64.88771      -16.53432
H         34.70239       66.08016      -16.52710
H         34.21260       65.27585      -18.05968
N         36.92547       64.96945      -18.39484
C         38.31128       65.19165      -18.83741
C         38.62714       64.32205      -20.04947
O         39.59017       64.60111      -20.74977
C         38.46853       66.70813      -19.07936
C         39.87777       67.13988      -19.38692
O         40.12811       67.71159      -20.43504
O         40.86177       66.94495      -18.48946
H         36.20282       64.88270      -19.13747
H         39.04077       64.92545      -18.03793
H         38.17158       67.24200      -18.14834
H         37.78217       67.02393      -19.89256
N         37.89780       63.19192      -20.30795
C         38.16666       62.28338      -21.40593
C         39.56590       61.76520      -21.28923
O         40.34547       61.94884      -22.21434
H         37.13936       62.91491      -19.67452
H         38.01892       62.80934      -22.37440
H         37.45712       61.42914      -21.35745
N         39.98086       61.18517      -20.12764
C         41.39352       60.96367      -19.86695
C         41.88163       59.65008      -20.42370
O         41.09454       58.75953      -20.71453
C         41.72303       61.15830      -18.37607
C         41.34815       62.55492      -17.93490
N         41.92036       63.63832      -18.51329
O         40.51491       62.70943      -17.05488
H         39.30795       61.10959      -19.34792
H         41.95957       61.74620      -20.41689
H         42.81109       61.01817      -18.20273
H         41.17112       60.40525      -17.77028
H         42.62718       63.53924      -19.25578
H         41.65574       64.58707      -18.22146
N         43.20375       59.53625      -20.71722
C         43.78495       58.41763      -21.42442
C         43.87925       57.17584      -20.58479
O         44.48674       57.22449      -19.52386
H         43.82287       60.33769      -20.51880
H         44.82925       58.68753      -21.69224
H         43.23654       58.24558      -22.37629
N         43.40090       55.99081      -21.05875
C         43.69793       54.72181      -20.39906
C         43.03275       54.57369      -19.03737
O         43.44321       53.68958      -18.29832
C         43.42460       53.50682      -21.32549
C         41.94480       53.30693      -21.68486
O         44.21200       53.59488      -22.48995
H         42.93131       55.99277      -21.97514
H         44.79711       54.71661      -20.21672
H         43.75051       52.58792      -20.79139
H         43.80186       54.25995      -23.10173
H         41.84057       52.42223      -22.34756
H         41.35459       53.11802      -20.77208
H         41.52554       54.18987      -22.20958
N         42.01968       55.39228      -18.62742
C         41.45960       55.35494      -17.27584
C         41.62426       56.72510      -16.63548
O         42.18629       57.61551      -17.26119
C         39.97796       54.85407      -17.27854
C         38.99110       55.85003      -17.93984
C         39.90528       53.45519      -17.91167
C         37.53091       55.39001      -17.86370
H         41.63803       56.08920      -19.28393
H         42.02191       54.63705      -16.63892
H         39.66250       54.73118      -16.22005
H         39.25886       56.02693      -19.00202
H         39.05061       56.81727      -17.39965
H         40.63150       52.77122      -17.42300
H         38.90170       53.00313      -17.78521
H         40.12917       53.51367      -18.99137
H         37.36670       54.47546      -18.46923
H         37.23822       55.19114      -16.81000
H         36.86793       56.18091      -18.27094
N         41.11248       56.98016      -15.40037
C         41.14362       58.30041      -14.78913
C         41.67078       58.23287      -13.34924
O         41.61124       59.23338      -12.64896
C         39.71568       58.86830      -14.91491
C         39.60107       60.35469      -14.71346
O         38.52065       60.89164      -14.89384
O         40.67372       61.11403      -14.41602
H         40.58932       56.24012      -14.90971
H         41.80108       58.98477      -15.36989
H         39.02330       58.31202      -14.24978
H         39.38150       58.70599      -15.96329
N         42.25326       57.09603      -12.85478
C         42.79667       56.99111      -11.50378
C         41.66957       56.97459      -10.47024
O         40.81588       56.10494      -10.57731
C         43.59419       55.67447      -11.34842
C         44.20343       55.60016       -9.96992
C         45.28942       56.42392       -9.62847
C         43.65932       54.74058       -9.00186
C         45.81800       56.39083       -8.33515
C         44.18241       54.72006       -7.70661
C         45.26074       55.54409       -7.37318
H         42.37065       56.28163      -13.47371
H         43.50904       57.82862      -11.35196
H         44.39890       55.58915      -12.11151
H         42.89658       54.82299      -11.51252
H         45.72164       57.09360      -10.36212
H         42.81279       54.10910       -9.24147
H         46.65338       57.02841       -8.07655
H         43.74531       54.07088       -6.95953
H         45.66205       55.52878       -6.36861
N         41.61509       57.84158       -9.41036
C         40.58143       57.82456       -8.37985
C         39.17795       57.78620       -8.93314
O         38.36687       56.98944       -8.48336
C         40.80357       59.15096       -7.64099
C         42.30385       59.27645       -7.69648
C         42.59496       58.87586       -9.14095
H         40.75857       56.96029       -7.70045
H         40.39984       60.00102       -8.23889
H         40.35065       59.19118       -6.62767
H         42.71686       60.26229       -7.39683
H         42.71961       58.49326       -7.02043
H         42.43680       59.70958       -9.85899
H         43.64199       58.51705       -9.18251
N         38.84175       58.63015       -9.93980
C         37.51465       58.71398      -10.52780
C         37.07750       57.37091      -11.07624
O         35.96205       56.95438      -10.79508
C         37.49192       59.77169      -11.63429
C         37.86409       61.17149      -11.11262
C         37.70519       62.14154      -12.22129
O         38.76305       62.78535      -12.73845
O         36.60007       62.32272      -12.70785
H         39.59028       59.22973      -10.31490
H         36.78263       59.04079       -9.75545
H         36.46398       59.80327      -12.06013
H         38.19741       59.48754      -12.44052
H         38.91462       61.20823      -10.75895
H         37.20112       61.47798      -10.27564
N         37.92631       56.60842      -11.81778
C         37.55829       55.28991      -12.28526
H         36.72162       55.36394      -13.01029
H         38.42742       54.80557      -12.77853
H         37.24843       54.65595      -11.42517
H         38.87790       56.95070      -12.01522
Ca        38.02384       63.92655      -14.49107
O         41.92581       63.98781      -13.82367
H         42.19993       64.28054      -12.91837
H         42.76609       63.97894      -14.34756
O         38.80929       65.93711      -12.88325
H         38.14062       66.61408      -12.61408
H         39.68752       66.38171      -12.79114
O         40.29777       66.02356      -15.48223
H         40.73218       65.50346      -16.20255
H         39.92159       66.81887      -15.93588

Ca 1.0



