%chk=apoCaM-CA-Ng.loop1.water2.frame1079.chk
%nprocshared=20
%mem=10GB
%nosave
#b3lyp/svp scf=(tight,noincore,xqc) Test 
#IOP(5/87=12) Density=Current Pop=(MK,readradii) iop(6/33=2) iop(6/42=6)

apoCaM-CA-Ng.loop1.water2.frame1079 

   0  1 
C         29.74533       47.50375       27.56061
C         30.18422       47.51757       28.99118
O         29.54667       48.18095       29.79766
H         28.84963       48.14753       27.42135
H         30.56355       47.88970       26.91752
H         29.49230       46.46667       27.25983
N         31.28935       46.81598       29.37703
C         31.77943       46.81505       30.74829
C         33.11779       47.52803       30.81122
O         34.08663       46.99648       31.33738
C         31.82508       45.38056       31.30761
C         30.45952       44.75048       31.30906
O         30.25276       43.72984       30.67260
O         29.45865       45.30511       32.01989
H         31.81794       46.28544       28.66750
H         31.09947       47.39996       31.39855
H         32.19575       45.39884       32.35574
H         32.52421       44.76709       30.69739
N         33.20976       48.79142       30.30979
C         34.38555       49.64287       30.45660
C         34.63630       49.93457       31.93411
O         35.74704       49.68039       32.37698
C         34.25630       50.97891       29.67525
C         33.95868       50.82584       28.17170
C         35.08198       50.13816       27.38083
C         34.72160       49.93751       25.89715
N         34.45049       51.19722       25.20109
H         32.38119       49.17109       29.83069
H         35.26918       49.11422       30.03729
H         35.19847       51.55841       29.79642
H         33.44805       51.60419       30.09692
H         33.81941       51.85107       27.77016
H         33.00762       50.27473       28.02474
H         35.27676       49.12949       27.79965
H         36.01366       50.73935       27.46480
H         33.83323       49.27216       25.81596
H         35.57645       49.42691       25.40108
H         34.30099       50.99632       24.18610
H         33.57876       51.64199       25.56690
H         35.25976       51.85124       25.30291
N         33.68287       50.41166       32.79978
C         32.27593       50.65837       32.47794
C         31.42308       49.54920       33.07155
O         31.97451       48.64391       33.68611
C         31.84640       52.07698       32.90571
C         31.73108       52.23765       34.39186
O         30.85669       51.46794       35.06660
O         32.38278       53.08295       34.97676
H         33.95688       50.52045       33.78975
H         32.09506       50.62458       31.40073
H         30.84607       52.29704       32.47847
H         32.55703       52.81783       32.47595
N         30.06765       49.54411       32.92187
C         29.23170       48.46299       33.42022
C         28.39290       48.89536       34.59150
O         28.46296       50.04139       35.00832
H         29.60533       50.33068       32.44193
H         29.85066       47.61291       33.77876
H         28.59212       48.08353       32.59570
N         27.60955       47.97568       35.21654
C         26.85593       48.24458       36.43799
C         25.36979       47.96848       36.21502
O         25.03301       47.39274       35.18899
C         27.43292       47.32053       37.53725
C         28.87936       47.62918       37.80371
O         29.73590       46.78126       37.61069
O         29.23440       48.84150       38.26975
H         27.59225       47.01431       34.83902
H         26.97325       49.30740       36.73590
H         27.32955       46.26195       37.20862
H         26.90645       47.40834       38.49792
N         24.39128       48.32156       37.10566
C         24.58335       49.11962       38.30948
C         24.89435       50.56363       37.99554
O         24.86760       50.95404       36.83682
H         23.42438       48.02566       36.89877
H         25.35062       48.68343       38.96380
H         23.63912       49.12600       38.89532
N         25.17415       51.42937       39.01233
C         25.39323       52.86046       38.80469
C         26.50667       53.12752       37.81142
O         27.44578       52.34782       37.74153
C         25.64252       53.61643       40.13540
C         26.94947       53.20999       40.82790
O         24.57537       53.39251       41.02016
H         25.19837       51.05270       39.97192
H         24.45296       53.27001       38.37191
H         25.72188       54.70933       39.92497
H         23.80468       53.91881       40.68138
H         27.82283       53.43595       40.18102
H         27.06719       53.78701       41.76946
H         26.95453       52.12928       41.07812
N         26.41094       54.19686       36.96587
C         27.33761       54.50130       35.87934
C         28.72168       54.86044       36.41339
O         29.37462       54.03420       37.02958
C         27.36636       53.34407       34.82956
C         25.93077       53.07565       34.29546
C         28.32505       53.67581       33.66954
C         25.81504       51.83525       33.40653
H         25.59299       54.81845       37.06146
H         26.93911       55.39470       35.34737
H         27.73979       52.42778       35.32446
H         25.56275       53.96508       33.73864
H         25.24208       52.90588       35.14782
H         28.39578       52.83178       32.95495
H         27.98381       54.58245       33.12637
H         29.35194       53.85539       34.04663
H         26.41711       51.93036       32.48181
H         26.13289       50.93143       33.96706
H         24.75449       51.70021       33.10496
N         29.25039       56.09000       36.15647
C         30.61907       56.46748       36.51475
C         30.88839       56.54979       38.01961
O         32.04097       56.74497       38.38191
C         30.99488       57.82233       35.84569
C         30.17180       59.00752       36.37893
O         30.80939       57.73976       34.45558
H         28.68197       56.74661       35.60217
H         31.29401       55.68990       36.09160
H         32.06402       58.05837       36.05701
H         31.55909       57.19826       34.09523
H         29.08654       58.87331       36.19181
H         30.32769       59.13916       37.47006
H         30.49109       59.94254       35.87187
N         29.89131       56.48947       38.94836
C         30.12847       56.72353       40.37305
C         30.96583       55.62145       41.00421
O         30.50741       54.48923       41.06037
C         28.77417       56.86351       41.12032
C         28.94260       57.07514       42.62863
O         28.06828       57.96367       40.60245
H         28.92157       56.36570       38.62596
H         30.65814       57.69713       40.48059
H         28.18076       55.92702       40.99506
H         27.41564       57.61671       39.94032
H         27.94693       57.19467       43.10486
H         29.42703       56.19360       43.09636
H         29.55047       57.98232       42.83154
N         32.18392       55.90868       41.56058
C         32.96028       54.96637       42.36501
C         33.26332       53.70340       41.58343
O         32.80562       52.63072       41.95566
C         32.24375       54.69110       43.70986
C         32.10192       55.98091       44.53906
C         31.37207       55.72358       45.86216
C         31.19377       57.02905       46.65130
N         30.47821       56.79204       47.90458
H         32.56464       56.86172       41.45910
H         33.93818       55.42784       42.63219
H         32.84535       53.96521       44.30125
H         31.24228       54.24628       43.52779
H         31.53268       56.73542       43.95899
H         33.11137       56.39825       44.75103
H         31.95243       54.99655       46.47177
H         30.36962       55.29301       45.64788
H         30.61733       57.75617       46.03626
H         32.19007       57.47184       46.87482
H         29.53212       56.39139       47.70822
H         31.02145       56.13550       48.51082
H         30.36094       57.70064       48.40883
N         34.06995       53.77112       40.48790
C         34.40507       52.61094       39.66645
C         34.00992       52.84363       38.21506
O         33.17854       52.08106       37.74835
C         35.88082       52.17978       39.80788
C         36.22991       51.82612       41.26087
C         37.63991       51.32174       41.36725
O         37.97728       50.30792       40.77620
O         38.53693       51.97925       42.12614
H         34.46302       54.69088       40.25634
H         33.82204       51.72832       40.01850
H         36.58932       52.94919       39.45584
H         36.02905       51.27481       39.17648
H         35.54250       51.03817       41.63855
H         36.11541       52.72989       41.89765
N         34.50707       53.82187       37.39545
C         35.49555       54.83347       37.70624
H         36.35381       54.72209       37.01160
H         35.04479       55.83661       37.55581
H         35.89022       54.79450       38.72697
H         34.14852       53.86087       36.43233
Ca        30.47901       51.49964       37.28207
O         32.32647       49.06218       37.46446
H         31.78102       48.60738       36.77450
H         33.21503       48.63019       37.40486
O         29.84167       51.46104       40.14639
H         29.68134       51.45441       41.12274
H         30.68790       51.96331       40.03590

Ca 1.0



