%chk=apoCaM-CA-Ng.loop1.water4.frame438.chk
%nprocshared=20
%mem=10GB
%nosave
#b3lyp/svp scf=(tight,noincore,xqc) Test 
#IOP(5/87=12) Density=Current Pop=(MK,readradii) iop(6/33=2) iop(6/42=6)

apoCaM-CA-Ng.loop1.water4.frame438 

   0  1 
C        128.43336       85.55575       70.98796
C        127.87037       85.74494       69.60930
O        127.36292       84.80050       69.02177
H        129.51108       85.82363       70.99215
H        127.89754       86.22208       71.69847
H        128.31823       84.50587       71.32800
N        127.91407       86.97730       69.04015
C        127.34441       87.29413       67.73370
C        128.17412       86.74748       66.56744
O        127.83186       87.07582       65.44386
C        127.25282       88.83739       67.56415
C        126.36906       89.50635       68.58967
O        125.37386       90.11374       68.23211
O        126.68286       89.48015       69.89857
H        128.33285       87.73715       69.59767
H        126.30396       86.90240       67.67268
H        126.82656       89.06290       66.56158
H        128.26780       89.28910       67.60992
N        129.29674       85.98188       66.72279
C        130.24451       85.76008       65.62856
C        130.43339       84.30523       65.22641
O        130.53323       83.47463       66.11814
C        131.61639       86.30465       66.06801
C        131.59850       87.83033       66.23086
C        132.94305       88.40794       66.69092
C        134.09500       88.12466       65.71080
N        135.31970       88.79365       66.14313
H        129.57104       85.64695       67.65587
H        129.92535       86.31925       64.74643
H        132.36294       86.04192       65.29743
H        131.92808       85.81647       67.01777
H        130.82835       88.11651       66.97924
H        131.33010       88.29145       65.25945
H        133.19796       88.00295       67.69406
H        132.81451       89.50857       66.78017
H        133.82035       88.48813       64.69579
H        134.29187       87.03260       65.65406
H        135.17633       89.82956       66.14939
H        135.58986       88.46702       67.09928
H        136.08922       88.56196       65.47427
N        130.66571       83.90525       63.92479
C        130.61636       84.72687       62.70162
C        131.49481       85.97701       62.77792
O        130.97027       87.07922       62.82561
C        129.15540       85.01752       62.30805
C        128.41275       83.77347       61.92756
O        127.21434       83.83392       61.70663
O        129.04225       82.58723       61.82515
H        130.90918       82.91250       63.78220
H        130.99893       84.13437       61.84655
H        129.11286       85.67524       61.42026
H        128.62879       85.49244       63.15535
N        132.85266       85.92232       62.74554
C        133.57919       84.69795       62.46789
C        135.07296       84.91735       62.32023
O        135.56191       85.99308       62.63456
H        133.36147       86.81629       62.81888
H        133.21624       84.34272       61.48278
H        133.38129       83.92816       63.24297
N        135.88872       83.96456       61.78339
C        135.44039       82.65699       61.31086
C        135.53651       82.56939       59.79599
O        136.03425       83.48849       59.15837
C        136.21152       81.54269       62.04154
C        137.70390       81.66011       61.89020
O        138.47280       81.85646       62.97876
O        138.22538       81.58307       60.78961
H        136.88505       84.20515       61.65914
H        134.36936       82.49603       61.54049
H        135.88124       80.54512       61.68309
H        135.96120       81.61223       63.12280
N        134.98836       81.50278       59.14798
C        134.89703       81.39630       57.70089
C        134.09685       82.54624       57.13993
O        134.58584       83.24204       56.26131
H        134.55749       80.74962       59.70530
H        134.37089       80.45126       57.44532
H        135.91219       81.36325       57.24812
N        132.86990       82.83463       57.65837
C        132.07184       83.98105       57.24739
C        132.10410       84.98194       58.38502
O        131.63618       84.66129       59.46687
C        130.62880       83.53651       56.91535
C        130.59398       82.52342       55.76612
O        129.86274       84.65869       56.56341
H        132.51695       82.25677       58.43769
H        132.50940       84.46057       56.34408
H        130.20004       83.05446       57.82636
H        128.92045       84.44872       56.79834
H        129.54486       82.21491       55.56943
H        131.01329       82.97171       54.84053
H        131.17597       81.61375       56.02502
N        132.68735       86.20567       58.21986
C        132.89346       87.14311       59.32547
C        131.75204       88.15149       59.46703
O        131.81918       88.98875       60.35671
C        134.27713       87.86383       59.20724
C        134.32401       88.88169       58.03427
C        135.42245       86.83681       59.10276
C        135.56544       89.77675       58.06577
H        133.06817       86.44449       57.29309
H        132.93088       86.56803       60.27020
H        134.41566       88.43461       60.15308
H        133.45367       89.56676       58.10675
H        134.27058       88.36179       57.05494
H        135.37496       86.12255       59.94358
H        135.36046       86.26180       58.15436
H        136.41518       87.32725       59.14902
H        135.50721       90.51661       57.24000
H        135.61072       90.33050       59.02846
H        136.49844       89.19460       57.93314
N        130.69513       88.15655       58.60499
C        129.65134       89.18780       58.57770
C        128.72556       89.24407       59.80393
O        127.83513       90.08147       59.79689
C        128.81239       89.04096       57.27925
C        127.96521       87.75886       57.25073
O        129.68244       89.06195       56.17479
H        130.68566       87.44780       57.86038
H        130.16301       90.17359       58.50400
H        128.12698       89.91771       57.21641
H        129.13387       89.26070       55.37240
H        128.59544       86.85218       57.32024
H        127.24074       87.74965       58.08990
H        127.39215       87.71203       56.30137
N        128.86281       88.41186       60.87732
C        128.00808       88.40687       62.07299
C        126.60913       87.86604       61.78704
O        126.20748       87.74744       60.63869
C        128.00758       89.78106       62.81595
C        129.40265       90.10674       63.35287
O        127.11872       89.75926       63.90326
H        129.62894       87.73349       60.86335
H        128.43989       87.66849       62.77334
H        127.68328       90.57744       62.11295
H        126.87648       90.70159       64.10551
H        129.39266       91.09149       63.86652
H        129.69499       89.33609       64.09457
H        130.15359       90.13524       62.53765
N        125.83955       87.45727       62.83928
C        124.48299       86.92955       62.75270
C        124.36214       85.50742       63.31690
O        123.26523       84.96766       63.27376
C        123.54487       87.90560       63.51002
C        123.77839       87.92488       65.04393
C        123.04177       89.05799       65.77439
C        123.63545       90.44153       65.44214
N        123.01738       91.49185       66.24972
H        126.24322       87.53983       63.77379
H        124.16247       86.90329       61.68834
H        122.48049       87.64088       63.32604
H        123.71980       88.90852       63.07119
H        124.84832       88.03289       65.30356
H        123.43634       86.95069       65.45613
H        123.17667       88.88689       66.86527
H        121.95390       89.02692       65.55047
H        123.49359       90.68389       64.36904
H        124.72866       90.42965       65.64973
H        123.16084       91.29878       67.26740
H        123.46702       92.40732       66.01772
H        121.99480       91.55045       66.04207
N        125.42019       84.84711       63.88495
C        125.30616       83.52729       64.51184
C        124.32599       83.58525       65.66398
O        124.52543       84.36962       66.58202
C        126.68872       83.04935       65.02607
C        126.67108       81.77163       65.89447
C        126.06155       80.52379       65.29136
O        125.10415       80.00608       65.84332
O        126.62908       79.88411       64.24853
H        126.34186       85.30249       63.90220
H        124.95893       82.78850       63.75645
H        127.13431       83.85021       65.65803
H        127.36383       82.90720       64.16883
H        126.11972       82.00785       66.83011
H        127.71637       81.53810       66.19169
N        123.25733       82.74096       65.68639
C        122.30109       82.68848       66.77119
H        121.28522       82.89081       66.37450
H        122.31767       81.67243       67.21942
H        122.52544       83.42602       67.56961
H        123.12087       82.07955       64.90692
Ca       128.03913       80.87568       62.83015
O        129.36692       77.72480       60.16148
H        130.31536       77.55023       59.93676
H        128.85365       77.18665       59.50764
O        126.53054       77.82733       61.86850
H        125.64855       77.94970       62.30186
H        127.11176       77.46887       62.58561
O        129.06883       80.79540       59.37629
H        128.53454       81.57933       59.09246
H        129.54311       80.50665       58.55649
O        125.47543       80.78871       61.10001
H        125.29509       80.80870       62.07311
H        125.70186       81.72476       60.87190

Ca 1.0



