%chk=apoCaM-CA-Ng.loop2.water2.frame874.chk
%nprocshared=20
%mem=10GB
%nosave
#b3lyp/svp scf=(tight,noincore,xqc) Test 
#IOP(5/87=12) Density=Current Pop=(MK,readradii) iop(6/33=2) iop(6/42=6)

apoCaM-CA-Ng.loop2.water2.frame874 

   -2  1 
C         18.46085       17.24559       -8.27909
C         17.53524       18.42322       -8.29323
O         16.34541       18.23010       -8.50224
H         19.50814       17.55493       -8.08158
H         18.14191       16.53492       -7.48847
H         18.41999       16.73654       -9.26507
N         18.00766       19.68717       -8.09075
C         17.13327       20.85239       -8.13961
C         16.10671       20.85132       -7.00878
O         15.19913       21.67024       -7.06507
C         17.97235       22.15156       -8.12387
C         17.14927       23.38287       -8.39052
O         16.53828       23.49728       -9.44159
O         17.09684       24.37322       -7.47974
H         19.02041       19.82263       -7.94573
H         16.59491       20.80712       -9.11314
H         18.74442       22.09450       -8.92167
H         18.49254       22.24642       -7.14512
N         16.18601       19.99664       -5.93898
C         15.18469       20.01235       -4.87330
C         15.58577       19.18282       -3.65030
O         16.50928       18.38698       -3.74713
C         13.85478       19.45907       -5.41905
H         16.99689       19.36858       -5.85923
H         15.10658       21.07012       -4.54711
H         13.49208       20.04190       -6.28777
H         14.00256       18.40648       -5.74886
H         13.05493       19.46515       -4.65533
N         14.96532       19.30944       -2.43327
C         13.94286       20.30703       -2.10670
C         14.50224       21.31028       -1.10915
O         15.58326       21.09233       -0.57965
C         12.61795       19.65540       -1.64853
C         12.71523       18.82261       -0.40014
O         11.97978       19.14798        0.67837
O         13.40626       17.81755       -0.37360
H         15.30621       18.70997       -1.66598
H         13.68603       20.90243       -2.99817
H         12.23031       19.00628       -2.46237
H         11.86975       20.46022       -1.47961
N         13.86757       22.49995       -0.90416
C         14.44122       23.57919       -0.11210
C         13.39537       24.26037        0.73773
O         13.09477       25.41039        0.44951
H         13.00839       22.69913       -1.44003
H         14.81809       24.33570       -0.83584
H         15.30939       23.25730        0.49812
N         12.75158       23.66633        1.78003
C         13.01850       22.32882        2.29359
C         14.26902       22.36662        3.16664
O         14.25528       23.04883        4.18278
C         11.77992       21.89589        3.11273
C         11.76366       20.49506        3.64961
N         10.70824       20.10501        4.40127
O         12.67064       19.71292        3.41334
H         12.00362       24.21817        2.23200
H         13.12002       21.62176        1.44366
H         10.88387       21.99133        2.46051
H         11.65739       22.59294        3.97047
H          9.93693       20.75884        4.59809
H         10.65140       19.16190        4.79951
N         15.40372       21.69623        2.81663
C         16.63344       21.76677        3.59750
C         16.60192       20.96162        4.88405
O         17.57767       21.01658        5.61859
H         15.42319       21.17783        1.92946
H         16.87026       22.83231        3.80847
H         17.47026       21.35202        2.99444
N         15.55947       20.14078        5.19142
C         15.52282       19.25908        6.35427
C         15.55901       17.81451        5.88266
O         15.62242       17.57447        4.68370
C         14.25580       19.55027        7.20218
C         14.30089       20.95370        7.80604
O         13.09267       19.42733        6.42558
H         14.76928       20.07806        4.54163
H         16.41727       19.40115        6.99990
H         14.19767       18.85453        8.06958
H         12.92072       18.45699        6.31183
H         14.34153       21.72790        7.01167
H         13.39296       21.12480        8.42336
H         15.19220       21.05662        8.46170
N         15.52009       16.79262        6.78390
C         15.54244       15.38875        6.39858
C         14.17180       14.81322        6.69890
O         13.73073       14.84995        7.83890
C         16.69975       14.64577        7.12412
C         16.75513       13.12775        6.79723
C         18.05393       15.31737        6.82043
C         16.98721       12.78018        5.32135
H         15.44474       17.01094        7.78858
H         15.72664       15.29813        5.30738
H         16.53324       14.73094        8.22120
H         15.80860       12.64779        7.12406
H         17.57618       12.66901        7.39102
H         18.27684       15.30851        5.73335
H         18.05153       16.37524        7.15752
H         18.87284       14.79701        7.36124
H         16.16087       13.15352        4.68455
H         17.94938       13.19081        4.95431
H         17.02902       11.67662        5.21053
N         13.42971       14.29816        5.68166
C         12.06086       13.81859        5.80209
C         11.97562       12.31678        5.54493
O         10.86789       11.79660        5.53583
C         11.18571       14.61120        4.80848
C         11.07327       16.06820        5.19099
O         10.49521       16.38221        6.21881
O         11.57579       17.03549        4.39963
H         13.85113       14.25176        4.74503
H         11.65850       13.97856        6.82674
H         10.15262       14.20303        4.78369
H         11.61132       14.50549        3.78677
N         13.09611       11.54141        5.42517
C         13.07423       10.08573        5.33944
C         13.96406        9.59926        4.18788
O         15.12630        9.98357        4.17340
C         13.62658        9.52448        6.66965
C         13.71755        8.01513        6.66082
C         14.97871        7.39629        6.66570
C         12.56170        7.21471        6.62878
C         15.08400        6.00471        6.62069
C         12.67153        5.82006        6.58754
C         13.93205        5.21639        6.57936
H         14.02389       11.98024        5.49936
H         12.03398        9.72805        5.24259
H         12.99231        9.85059        7.52368
H         14.63810        9.95871        6.82976
H         15.88239        7.99226        6.68714
H         11.57799        7.66778        6.63005
H         16.06079        5.53935        6.61253
H         11.78050        5.20617        6.55618
H         14.01766        4.13829        6.54042
N         13.55246        8.69055        3.24165
C         14.47305        8.02743        2.31362
C         15.10134        8.86580        1.20899
O         15.77017        8.27353        0.37235
C         13.61897        6.92053        1.68118
C         12.65443        6.59502        2.79707
C         12.27515        7.99686        3.24827
H         15.27465        7.54923        2.92235
H         13.01254        7.34458        0.84706
H         14.20537        6.06040        1.29185
H         11.79616        5.95778        2.49783
H         13.21603        6.08933        3.61698
H         11.60931        8.46952        2.49245
H         11.75570        7.93270        4.21672
N         14.93463       10.21632        1.10396
C         15.44687       10.98021       -0.03936
C         16.95536       10.89827       -0.24896
O         17.40671       11.37657       -1.28106
C         15.03464       12.46096        0.06113
C         15.74067       13.18787        1.21685
C         15.17372       14.55607        1.35951
O         14.44424       14.79628        2.45063
O         15.28277       15.39592        0.48050
H         14.36894       10.70400        1.81188
H         14.95941       10.55231       -0.94325
H         13.93109       12.50581        0.20583
H         15.27285       12.98829       -0.88862
H         16.84039       13.24478        1.07231
H         15.54862       12.63751        2.16371
N         17.79804       10.34411        0.66969
C         19.23119       10.25631        0.47362
H         19.74811       10.80882        1.28498
H         19.53896        9.19069        0.50493
H         19.55614       10.68145       -0.49966
H         17.43013        9.97470        1.55672
Ca        13.12964       16.51964        2.89546
O         15.96310       18.35129        1.62858
H         16.48217       18.01396        0.85601
H         15.23703       18.88665        1.22237
O         11.77324       14.99919        0.43441
H         11.55280       15.60470       -0.31736
H         10.94095       14.95402        0.96894

Ca 1.0



