%chk=apoCaM-CA-Ng.loop2.water4.frame1124.chk
%nprocshared=20
%mem=10GB
%nosave
#b3lyp/svp scf=(tight,noincore,xqc) Test 
#IOP(5/87=12) Density=Current Pop=(MK,readradii) iop(6/33=2) iop(6/42=6)

apoCaM-CA-Ng.loop2.water4.frame1124 

   -2  1 
C         81.21164       67.36125       45.82590
C         82.08521       68.45759       46.37145
O         82.64382       68.27485       47.44303
H         80.17021       67.72546       45.70589
H         81.60786       67.02104       44.84569
H         81.19942       66.49043       46.51575
N         82.28751       69.63474       45.71280
C         81.68019       69.99182       44.43358
C         80.82388       71.24082       44.61833
O         80.29307       71.40744       45.70829
C         82.79309       70.06163       43.36230
C         83.84666       71.09539       43.63923
O         83.59155       72.28155       43.53841
O         85.09411       70.71108       43.96432
H         82.92026       70.32535       46.14617
H         80.98738       69.19949       44.08726
H         82.37874       70.22009       42.34524
H         83.28719       69.06507       43.35480
N         80.61020       72.14796       43.61495
C         79.77432       73.34198       43.76167
C         80.31663       74.33977       44.78670
O         79.64152       75.32436       45.05378
C         78.31693       72.95021       44.05414
H         81.04138       71.99441       42.69326
H         79.75361       73.87784       42.78638
H         77.94797       72.27097       43.25581
H         78.20132       72.44758       45.03410
H         77.67172       73.85472       44.05490
N         81.55802       74.19796       45.33602
C         82.17193       75.14789       46.24638
C         83.18220       76.05540       45.47900
O         83.91652       75.45288       44.44540
C         82.63452       74.44806       47.57302
C         83.16990       73.01144       47.59585
O         84.31527       72.62714       47.00300
O         82.56523       72.17670       48.25016
H         82.15115       73.41557       45.04968
H         81.43619       75.91223       46.58277
H         81.71270       74.39213       48.19454
H         83.32611       75.11823       48.12470
N         83.98792       76.92144       46.35802
C         84.96677       77.74254       45.62508
C         86.35451       77.26976       45.96527
O         86.63108       76.09183       45.81248
H         83.32752       77.55318       46.86845
H         84.85265       78.81665       45.89368
H         84.82141       77.68403       44.52401
N         87.30473       78.13635       46.40811
C         88.65947       77.69116       46.73128
C         88.68334       76.83523       47.99346
O         87.67711       76.74689       48.68486
C         89.61045       78.90329       46.83534
C         89.18465       79.90150       47.88674
N         88.79757       81.14987       47.53066
O         89.18281       79.58081       49.06558
H         87.06820       79.13892       46.45819
H         89.02834       77.07095       45.88343
H         89.61631       79.39943       45.83975
H         90.65055       78.57112       47.04007
H         88.77968       81.43755       46.54085
H         88.49875       81.82985       48.24487
N         89.82015       76.16415       48.34025
C         89.94787       75.34522       49.54057
C         91.08876       75.83636       50.40989
O         91.73968       76.80309       50.03740
H         90.63873       76.22560       47.71598
H         90.14470       74.29543       49.23852
H         89.01365       75.37083       50.14247
N         91.40014       75.26924       51.61230
C         90.71812       74.12792       52.21687
C         89.88270       74.59137       53.38935
O         90.30030       75.46839       54.13382
C         91.71323       73.03770       52.67429
C         92.37053       72.33602       51.48406
O         92.69090       73.59680       53.51487
H         92.15261       75.71386       52.16242
H         90.02180       73.64785       51.49795
H         91.13260       72.26642       53.23544
H         93.12150       72.84479       53.99931
H         93.04635       71.53394       51.85107
H         91.58947       71.86046       50.85163
H         92.95404       73.05145       50.86989
N         88.66235       74.01962       53.59270
C         87.71703       74.43227       54.62686
C         87.47476       73.28238       55.60772
O         87.79078       72.15208       55.25981
C         86.39597       74.92562       53.94421
C         85.69074       73.78823       53.14273
C         86.71032       76.14553       53.05747
C         84.42588       74.21703       52.39724
H         88.39314       73.24702       52.96860
H         88.15451       75.27661       55.18870
H         85.68740       75.26968       54.72265
H         85.41444       72.97927       53.85323
H         86.35903       73.35879       52.37195
H         85.78178       76.59012       52.64674
H         87.20636       76.93600       53.66009
H         87.37717       75.86695       52.21402
H         84.66812       74.93474       51.58764
H         83.96256       73.32520       51.92428
H         83.68945       74.67990       53.07537
N         86.93426       73.44207       56.85639
C         86.70640       74.72504       57.52271
C         85.63387       74.62942       58.61689
O         85.10523       73.55840       58.87762
C         88.05061       75.26375       58.08440
C         88.74849       74.28336       58.98864
O         89.85982       73.87012       58.69533
O         88.16373       73.86292       60.12567
H         86.83085       72.58771       57.42656
H         86.31477       75.46055       56.80022
H         87.89753       76.21566       58.63178
H         88.73723       75.49754       57.24813
N         85.27577       75.75929       59.29753
C         84.29849       75.82261       60.38278
C         83.28914       76.95003       60.10364
O         83.74137       78.03207       59.75679
C         85.05118       76.16806       61.68316
C         84.10344       76.20215       62.85693
C         83.66110       77.43329       63.36668
C         83.62258       75.00809       63.42419
C         82.73965       77.47118       64.41558
C         82.70851       75.05124       64.48255
C         82.26387       76.28200       64.97382
H         85.75682       76.63757       59.05735
H         83.81078       74.84169       60.53956
H         85.53606       77.15977       61.54806
H         85.86195       75.43526       61.89023
H         84.00857       78.36250       62.93293
H         83.94824       74.04798       63.04254
H         82.38937       78.42402       64.78975
H         82.33708       74.13139       64.91568
H         81.54801       76.31521       65.78462
N         81.93497       76.84287       60.31043
C         81.24032       75.68120       60.82261
C         81.24995       74.55955       59.81151
O         81.70725       73.48196       60.16758
C         79.86854       76.23215       61.24942
C         79.63023       77.38922       60.30510
C         81.03490       77.97481       60.15345
H         81.69830       75.30039       61.75340
H         79.04946       75.48861       61.35109
H         80.00928       76.71004       62.24806
H         79.29004       76.97967       59.34113
H         78.85777       78.12173       60.62290
H         81.12595       78.47301       59.16466
H         81.25802       78.69881       60.96791
N         80.78257       74.71796       58.54085
C         80.81516       73.64386       57.57110
C         79.40777       73.08858       57.44802
O         78.55233       73.81942       56.96790
C         81.34761       74.10500       56.19242
C         82.78679       74.65756       56.20401
C         82.93169       76.10214       56.61739
O         84.03795       76.61535       56.61178
O         81.86378       76.86842       56.90304
H         80.34763       75.59655       58.25429
H         81.52698       72.87603       57.90166
H         80.67033       74.83798       55.70069
H         81.35736       73.19051       55.55899
H         83.16459       74.61525       55.16974
H         83.43292       73.99678       56.81731
N         79.03049       71.84304       57.87068
C         79.85801       70.85235       58.53862
H         80.89757       71.15245       58.73254
H         79.41178       70.61976       59.52821
H         79.88137       69.92494       57.93159
H         78.04429       71.57428       57.73221
Ca        85.11463       73.89183       45.43172
O         85.49288       73.99897       41.88764
H         85.70536       73.08769       41.56420
H         85.09551       74.45359       41.10317
O         87.99768       75.13958       43.50883
H         88.85412       74.94099       43.96444
H         88.16509       74.92893       42.55642
O         87.88818       73.39887       46.55747
H         87.80641       73.55961       47.53106
H         88.74804       72.91989       46.45315
O         87.71974       71.93468       43.42612
H         87.27202       71.39281       42.72909
H         88.48312       72.35259       42.95547

Ca 1.0



