%chk=apoCaM-CA-Ng.loop2.water2.frame824.chk
%nprocshared=20
%mem=10GB
%nosave
#b3lyp/svp scf=(tight,noincore,xqc) Test 
#IOP(5/87=12) Density=Current Pop=(MK,readradii) iop(6/33=2) iop(6/42=6)

apoCaM-CA-Ng.loop2.water2.frame824 

   -2  1 
C         61.18156       86.72018       90.03631
C         61.57254       85.27348       90.12158
O         61.90468       84.81731       91.20603
H         60.30629       86.90462       90.69456
H         62.02732       87.35767       90.36689
H         60.90507       87.00610       88.99942
N         61.53025       84.48200       89.01329
C         61.85227       83.06020       89.01985
C         60.59994       82.22015       88.74848
O         60.71145       81.00272       88.71264
C         62.97383       82.81402       87.98741
C         63.49419       81.40314       88.01092
O         63.43423       80.70858       87.00902
O         64.04648       80.90513       89.13415
H         61.22767       84.89883       88.11847
H         62.23389       82.75523       90.01946
H         63.83049       83.48450       88.21870
H         62.60220       83.06841       86.97002
N         59.36591       82.79641       88.60309
C         58.12805       82.05137       88.40648
C         57.45199       82.53725       87.12698
O         57.17821       83.72717       87.04956
C         57.21192       82.29513       89.60800
H         59.26968       83.81939       88.66576
H         58.32717       80.96442       88.38464
H         56.98099       83.37704       89.71601
H         56.26204       81.73307       89.48965
H         57.71408       81.95068       90.53780
N         57.15843       81.73831       86.05637
C         57.41035       80.30233       85.98671
C         57.58419       79.81771       84.55168
O         57.31217       80.54725       83.60882
C         56.30425       79.51452       86.72980
C         54.93051       79.76304       86.15477
O         54.40003       81.00173       86.16884
O         54.27782       78.83791       85.69938
H         56.74536       82.20330       85.23328
H         58.40428       80.10417       86.43780
H         56.28133       79.80906       87.79919
H         56.53237       78.42707       86.68755
N         58.14902       78.59785       84.33399
C         58.49878       78.08233       83.02160
C         58.03572       76.65384       82.89426
O         58.88515       75.77444       82.91402
H         58.43621       78.03683       85.15162
H         59.60976       78.08220       82.96793
H         58.13480       78.71507       82.18632
N         56.72673       76.29339       82.80162
C         55.60982       77.21562       82.63297
C         55.67786       77.79312       81.22469
O         55.76276       77.01334       80.28513
C         54.29447       76.42892       82.84130
C         53.03993       77.26207       82.90126
N         51.85099       76.64709       83.09582
O         53.08403       78.47848       82.80259
H         56.52151       75.28075       82.81169
H         55.64551       77.99972       83.41929
H         54.35942       75.90328       83.81930
H         54.18743       75.66327       82.04218
H         51.80075       75.62289       83.19465
H         50.97795       77.18611       83.15282
N         55.64347       79.13624       80.99382
C         55.79349       79.71499       79.66190
C         54.50680       80.28470       79.10395
O         54.54539       80.82521       78.00784
H         55.50079       79.77764       81.78722
H         56.14129       78.95560       78.92967
H         56.57288       80.50547       79.71005
N         53.32509       80.16894       79.76933
C         52.04523       80.64506       79.25787
C         51.49089       81.70350       80.19344
O         52.14106       82.03984       81.17361
C         51.07183       79.44182       79.11389
C         51.55982       78.44241       78.06369
O         50.92564       78.77144       80.33858
H         53.31000       79.70650       80.68596
H         52.15488       81.12157       78.25896
H         50.07617       79.78581       78.75093
H         50.21730       79.24945       80.83916
H         50.83362       77.60535       77.97782
H         51.63808       78.93866       77.07283
H         52.54953       78.02256       78.34051
N         50.27601       82.26860       79.95135
C         49.65530       83.24461       80.83584
C         48.45130       82.57472       81.46242
O         47.56115       82.14224       80.74237
C         49.30134       84.53483       80.04699
C         48.50849       85.57135       80.88845
C         50.57568       85.16534       79.45300
C         49.22459       86.08272       82.14204
H         49.74006       81.96701       79.12342
H         50.35544       83.52879       81.65020
H         48.64369       84.25398       79.19376
H         47.54219       85.12196       81.20314
H         48.26822       86.44397       80.24215
H         51.29728       85.44246       80.24962
H         51.08291       84.45282       78.76871
H         50.32104       86.07258       78.86553
H         49.42792       85.25379       82.84733
H         50.17537       86.59161       81.88614
H         48.57217       86.81704       82.65921
N         48.39408       82.41444       82.81506
C         47.35568       81.65610       83.49920
C         46.50344       82.52245       84.41319
O         45.50040       82.00897       84.89032
C         48.02964       80.53161       84.31024
C         48.68673       79.50971       83.42338
O         47.99472       78.74352       82.77255
O         50.02858       79.42854       83.32015
H         49.15219       82.80946       83.38975
H         46.64981       81.21298       82.76140
H         47.29895       79.99501       84.95346
H         48.78664       80.99297       84.98002
N         46.80734       83.82229       84.71505
C         45.90913       84.65674       85.51057
C         46.60232       85.93833       85.98286
O         47.16793       86.63518       85.15182
C         44.64935       85.00294       84.67638
C         43.70889       85.92318       85.41960
C         43.88846       87.31608       85.34423
C         42.66592       85.40809       86.20762
C         43.04689       88.17761       86.04993
C         41.82488       86.27567       86.91421
C         42.01658       87.65844       86.83635
H         47.69039       84.23019       84.37984
H         45.59744       84.07014       86.39497
H         44.10739       84.07428       84.39673
H         44.94446       85.48532       83.71862
H         44.68572       87.73463       84.74300
H         42.51192       84.33906       86.28442
H         43.19786       89.24763       85.98918
H         41.02674       85.87700       87.52659
H         41.36850       88.32857       87.38590
N         46.54111       86.35981       87.29343
C         47.06550       87.64040       87.77172
C         48.57727       87.80738       87.74218
O         49.05012       88.84962       88.17523
C         46.61038       87.69107       89.23820
C         45.32259       86.90755       89.19843
C         45.72685       85.73321       88.32099
H         46.56916       88.44441       87.18322
H         47.31295       87.09481       89.86817
H         46.53842       88.71451       89.66348
H         44.91460       86.61877       90.19004
H         44.56339       87.51593       88.65536
H         46.35672       85.00933       88.88456
H         44.79517       85.25573       87.96242
N         49.40319       86.81444       87.31213
C         50.86205       86.87460       87.42018
C         51.51321       88.00083       86.62807
O         52.71066       88.19405       86.79077
C         51.44684       85.50641       87.01746
C         51.26121       85.21880       85.51557
C         51.25206       83.74887       85.26267
O         52.16002       83.15308       84.47577
O         50.35255       83.07582       85.74009
H         48.97835       85.93745       86.98313
H         51.09516       87.03697       88.49617
H         50.90071       84.75387       87.63019
H         52.52493       85.41296       87.27316
H         52.04518       85.74723       84.93035
H         50.27552       85.58033       85.15427
N         50.81555       88.78191       85.75544
C         51.44411       89.86993       85.03898
H         52.27782       89.48490       84.41455
H         50.70261       90.36869       84.37980
H         51.83614       90.61839       85.76093
H         49.81603       88.61063       85.58012
Ca        51.39091       81.15314       83.80017
O         54.69333       82.24695       82.77108
H         54.54887       81.50147       83.40640
H         54.86008       83.03504       83.34651
O         51.19600       80.43669       86.88991
H         50.27101       80.59397       87.20661
H         51.72425       80.30955       87.71741

Ca 1.0



