%chk=apoCaM-CA-Ng.loop3.water7.frame1170.chk
%nprocshared=20
%mem=10GB
%nosave
#b3lyp/svp scf=(tight,noincore,xqc) Test 
#IOP(5/87=12) Density=Current Pop=(MK,readradii) iop(6/33=2) iop(6/42=6)

apoCaM-CA-Ng.loop3.water7.frame1170 

   0  1 
C         96.54624       59.29055      -11.40151
C         97.88724       59.27602      -12.07072
O         98.64204       60.22189      -11.91274
H         95.74504       59.22465      -12.16686
H         96.46744       58.42209      -10.71405
H         96.40829       60.22419      -10.81488
N         98.25246       58.21074      -12.83373
C         99.54188       58.10082      -13.50790
C         99.38562       57.97258      -15.01821
O        100.37900       57.70702      -15.67833
C        100.36269       56.94251      -12.90058
C         99.78735       55.56881      -13.11229
O        100.44113       54.72530      -13.70186
O         98.58474       55.23664      -12.60811
H         97.58014       57.43609      -12.93390
H        100.15653       59.01171      -13.33325
H        100.47000       57.11688      -11.80871
H        101.38419       56.97313      -13.34314
N         98.19251       58.22329      -15.64227
C         97.97988       58.20965      -17.08894
C         99.05032       58.99727      -17.83059
O         99.62951       58.49056      -18.78166
C         97.71944       56.77884      -17.62980
C         98.86128       55.77090      -17.42882
C         98.47686       54.39178      -17.98553
C         99.59630       53.34549      -17.84091
N         99.97823       53.12390      -16.44578
H         97.39146       58.53857      -15.07685
H         97.02621       58.75293      -17.27813
H         97.48298       56.85083      -18.71516
H         96.81550       56.38223      -17.11649
H         99.05006       55.66909      -16.34349
H         99.78191       56.12449      -17.93768
H         98.23978       54.48810      -19.06787
H         97.56672       54.02454      -17.46235
H        100.49021       53.66157      -18.42284
H         99.22770       52.38806      -18.27068
H         99.13664       52.90714      -15.86344
H        100.64374       52.31968      -16.39514
H        100.47056       53.96596      -16.07565
N         99.35650       60.26619      -17.43348
C        100.34848       61.10041      -18.10435
C        101.51763       61.38922      -17.17659
O        101.89914       62.53787      -16.99720
C         99.65802       62.36953      -18.65455
C         98.92762       63.15972      -17.59475
O         99.59175       63.71253      -16.56245
O         97.71784       63.30058      -17.66963
H         98.86639       60.65556      -16.61408
H        100.78634       60.56136      -18.97259
H         98.91771       62.04566      -19.41889
H        100.40092       63.02313      -19.15941
N        102.15948       60.36199      -16.56041
C        103.29730       60.58545      -15.68717
C        103.78117       59.27864      -15.09406
O        104.08166       58.39123      -15.88060
H        101.82284       59.40253      -16.72105
H        103.01487       61.32899      -14.92805
H        104.12411       61.02330      -16.28804
N        103.93899       59.03396      -13.75709
C        103.72793       59.95710      -12.64162
C        102.80332       59.30937      -11.61627
O        103.03378       58.15391      -11.28812
C        105.11191       60.26862      -12.03173
C        105.05310       61.29145      -10.92052
N        105.61404       62.51416      -11.07786
O        104.49534       61.01559       -9.86879
H        104.31391       58.10420      -13.50622
H        103.31686       60.92449      -12.95965
H        105.74372       60.67299      -12.85304
H        105.60241       59.34446      -11.65612
H        106.08457       62.77378      -11.95720
H        105.56593       63.21309      -10.32174
N        101.78466       59.96839      -10.98712
C        101.49747       61.38882      -11.13616
C        100.69309       61.87949       -9.95338
O        101.12691       61.63284       -8.83452
H        101.26285       59.43979      -10.26835
H        101.02255       61.59954      -12.11883
H        102.44281       61.96101      -11.08155
N         99.53199       62.58202      -10.10055
C         98.75463       63.06181       -8.94813
C         97.40790       63.65646       -9.37281
O         97.16752       63.80279      -10.56476
C         99.58802       64.10768       -8.14511
C         99.01259       64.43643       -6.79120
C         98.62775       65.74857       -6.47271
C         98.86896       63.42454       -5.82485
C         98.09881       66.04049       -5.21099
C         98.33534       63.71765       -4.56815
C         97.94618       65.02774       -4.25733
O         97.42633       65.32369       -3.04922
H         99.19982       62.75080      -11.06248
H         98.53440       62.16992       -8.32139
H         99.70518       65.01973       -8.77106
H        100.60872       63.73611       -7.93731
H         98.73403       66.54416       -7.19920
H         99.16759       62.40709       -6.04480
H         97.80148       67.05449       -4.97651
H         98.22584       62.92551       -3.83793
H         97.30064       64.65036       -2.36519
N         96.45288       63.98909       -8.45214
C         95.13755       64.50368       -8.83699
C         95.25975       65.83921       -9.56210
O         96.25824       66.52657       -9.40046
C         94.17276       64.58503       -7.60697
C         94.59967       65.69868       -6.61107
C         92.70681       64.75685       -8.04926
C         93.77585       65.73209       -5.32248
H         96.63708       63.80375       -7.45703
H         94.72199       63.75163       -9.54498
H         94.22832       63.59908       -7.09332
H         94.52737       66.69594       -7.09765
H         95.65374       65.53719       -6.31775
H         92.43179       63.96246       -8.77555
H         92.01857       64.64773       -7.18700
H         92.53091       65.75139       -8.50614
H         94.17338       66.52454       -4.65337
H         92.71297       65.97374       -5.52610
H         93.84250       64.75670       -4.79666
N         94.28744       66.23135      -10.43193
C         94.35473       67.48239      -11.18534
C         93.44230       67.44630      -12.40949
O         92.77780       66.45143      -12.65046
C         94.05385       68.67504      -10.25542
O         92.76638       68.55666       -9.71430
H         93.50746       65.58058      -10.59657
H         95.38100       67.59937      -11.59536
H         94.13528       69.63540      -10.80832
H         94.80882       68.69160       -9.43712
H         92.72594       69.19292       -8.95273
N         93.41422       68.50778      -13.26521
C         92.65586       68.55647      -14.51023
C         91.16202       68.37983      -14.29038
O         90.53735       67.61708      -15.01742
C         93.22186       67.54431      -15.52358
H         93.98302       69.33653      -13.04131
H         92.79962       69.57100      -14.94268
H         94.29940       67.74395      -15.69280
H         93.10917       66.50070      -15.15899
H         92.69795       67.63031      -16.49902
N         90.51589       69.05937      -13.29450
C         89.06942       69.00721      -13.07568
C         88.52300       67.59837      -12.83130
O         87.30916       67.44706      -12.80380
C         88.35499       69.67386      -14.26059
H         91.07057       69.66218      -12.66783
H         88.81799       69.62118      -12.18255
H         87.26223       69.73234      -14.06860
H         88.73273       70.71175      -14.38356
H         88.51709       69.11920      -15.20669
N         89.34251       66.52307      -12.63800
C         88.85971       65.15475      -12.49516
C         87.91979       65.05280      -11.31241
O         86.77817       64.65540      -11.50039
C         90.06482       64.18841      -12.36455
C         89.72195       62.68807      -12.30345
C         89.05608       62.16939      -13.55242
O         87.81963       62.57818      -13.89400
O         89.62211       61.33857      -14.24517
H         90.35504       66.67254      -12.59816
H         88.31398       64.89654      -13.42588
H         90.63911       64.44846      -11.44815
H         90.74052       64.34340      -13.23548
H         89.08385       62.46514      -11.42313
H         90.68393       62.14390      -12.17009
N         88.32364       65.44303      -10.07145
C         87.45393       65.43674       -8.91266
H         86.43673       65.05703       -9.14629
H         87.89618       64.79866       -8.12083
H         87.35430       66.47390       -8.52815
H         89.28491       65.79254       -9.94166
Ca        97.27872       64.84985      -15.15555
O         98.06243       61.99108      -14.27962
H         99.05092       61.99694      -14.21974
H         97.75840       62.34470      -13.40611
O         95.64700       66.08065      -17.39223
H         95.60710       65.24724      -17.92479
H         96.21751       66.69018      -17.92410
O         96.80508       67.58470      -14.11231
H         95.94400       67.11460      -13.98229
H         96.55403       68.53499      -14.22559
O         95.59025       64.36091      -12.88232
H         94.63261       64.23606      -12.66901
H         95.84581       65.19756      -12.41997
O         99.16082       66.69717      -16.67206
H         99.09718       67.47484      -16.06278
H         98.89489       67.05009      -17.55785
O         94.70293       63.34278      -15.65276
H         94.46626       63.08548      -16.57885
H         93.83400       63.42608      -15.18559
O         99.52757       65.70737      -13.36692
H         98.97791       65.87856      -12.56119
H        100.36458       65.30929      -13.01933

Ca 1.0



