%chk=apoCaM-CA-Ng.loop3.water2.frame994.chk
%nprocshared=20
%mem=10GB
%nosave
#b3lyp/svp scf=(tight,noincore,xqc) Test 
#IOP(5/87=12) Density=Current Pop=(MK,readradii) iop(6/33=2) iop(6/42=6)

apoCaM-CA-Ng.loop3.water2.frame994 

   0  1 
C         67.39683      115.90384       67.35739
C         67.24779      117.24568       68.00831
O         66.30614      117.95613       67.69204
H         68.39479      115.80200       66.88551
H         67.27654      115.12074       68.13674
H         66.60968      115.74992       66.58785
N         68.14516      117.65383       68.94807
C         67.96178      118.84717       69.76529
C         68.96135      119.92633       69.38014
O         70.15462      119.65460       69.38316
C         68.13236      118.43399       71.23964
C         67.61654      119.44150       72.21774
O         67.76569      119.23931       73.41171
O         66.95833      120.54435       71.81874
H         68.96350      117.05400       69.13977
H         66.93306      119.23720       69.62595
H         69.20874      118.23007       71.43489
H         67.58556      117.49674       71.44306
N         68.54224      121.17903       69.02159
C         69.47428      122.21505       68.57108
C         70.47577      122.62354       69.64673
O         71.52060      123.15151       69.29262
C         68.76023      123.49349       68.06864
C         67.76539      123.23930       66.92386
C         67.27224      124.56484       66.32441
C         66.22958      124.32391       65.22414
N         65.85018      125.57986       64.57639
H         67.53187      121.38061       69.03507
H         70.04078      121.78907       67.71273
H         69.54641      124.18851       67.69727
H         68.22711      123.99387       68.90766
H         66.89832      122.65672       67.30077
H         68.26566      122.65855       66.11898
H         68.14467      125.10295       65.89174
H         66.81965      125.20119       67.11664
H         65.32865      123.84997       65.67446
H         66.64257      123.63401       64.45527
H         65.48889      126.26207       65.28176
H         66.67762      125.98833       64.08305
H         65.10113      125.38981       63.87196
N         70.19585      122.48301       70.97368
C         71.10018      122.89329       72.04740
C         71.46072      121.69847       72.91989
O         72.64765      121.45456       73.09185
C         70.54635      124.14182       72.79378
C         69.08137      124.11842       73.12544
O         68.30939      124.80259       72.47275
O         68.58686      123.34573       74.09751
H         69.27940      122.09716       71.24229
H         72.06997      123.25452       71.63499
H         70.66877      124.98201       72.07461
H         71.15691      124.39302       73.68772
N         70.51374      120.87688       73.45555
C         70.83378      119.70685       74.27245
C         70.21944      119.77096       75.66087
O         70.50467      118.89161       76.46068
H         69.52770      121.07068       73.24892
H         71.93327      119.60424       74.39887
H         70.47579      118.78854       73.75938
N         69.37703      120.78055       76.02101
C         68.82913      120.98612       77.35067
C         67.31241      120.94910       77.32848
O         66.70126      121.60076       76.49192
C         69.22790      122.38812       77.85041
C         70.71718      122.59019       77.92248
N         71.31094      123.57207       77.20345
O         71.39162      121.87526       78.64813
H         69.12120      121.48318       75.33071
H         69.21855      120.23400       78.07289
H         68.80308      122.54680       78.86562
H         68.78391      123.15289       77.17411
H         70.75711      124.18854       76.59002
H         72.32812      123.72345       77.26334
N         66.64231      120.31465       78.32685
C         65.20784      120.42369       78.52105
C         64.40739      119.74758       77.43947
O         64.60089      118.56182       77.21225
H         67.18161      119.81718       79.05153
H         64.92988      121.49711       78.61772
H         64.94683      119.92929       79.48064
N         63.41851      120.42732       76.78863
C         62.51551      119.78288       75.83688
C         63.23285      119.37694       74.56423
O         64.41600      119.66109       74.42971
C         61.32867      120.71829       75.49008
C         60.54490      121.14053       76.71251
C         59.97349      120.17942       77.56563
C         60.36922      122.50401       77.00540
C         59.25443      120.57486       78.69629
C         59.63969      122.89717       78.13180
C         59.08411      121.93626       78.98280
O         58.38976      122.33096       80.06894
H         63.25475      121.41440       77.04154
H         62.10527      118.86572       76.31112
H         60.62187      120.19450       74.81396
H         61.71213      121.61186       74.94814
H         60.08690      119.12266       77.36340
H         60.79043      123.26485       76.35994
H         58.82936      119.82149       79.34744
H         59.50692      123.95067       78.34361
H         57.99422      121.69706       80.68430
N         62.55485      118.71117       73.57853
C         63.11139      118.32509       72.28342
C         63.47052      119.57463       71.48709
O         64.24595      120.38969       71.95689
C         64.29131      117.31870       72.43476
C         64.90939      116.90178       71.07266
C         63.84385      116.07622       73.22780
C         63.97945      116.17987       70.09600
H         61.56760      118.46292       73.74477
H         62.31356      117.78819       71.72663
H         65.11054      117.79909       73.00889
H         65.76627      116.22287       71.26843
H         65.29741      117.80789       70.56583
H         63.00935      115.55274       72.71593
H         64.69152      115.36882       73.34838
H         63.49565      116.36176       74.24238
H         64.54669      115.94526       69.17005
H         63.61562      115.22407       70.52279
H         63.11792      116.81312       69.81251
N         62.93686      119.77701       70.24903
C         63.21464      120.96540       69.44587
C         61.94321      121.67464       68.98549
O         62.06797      122.71096       68.34260
C         64.06545      120.55280       68.23869
O         63.36259      119.63269       67.44468
H         62.34773      119.03866       69.84040
H         63.80322      121.69865       70.03353
H         65.00510      120.10181       68.62986
H         64.33890      121.43916       67.62648
H         64.03066      119.00841       67.06110
N         60.69490      121.17267       69.22131
C         59.48154      121.78261       68.68149
C         59.14854      123.10069       69.37313
O         59.72287      123.36800       70.41958
C         58.31696      120.80052       68.85309
H         60.59558      120.28537       69.73338
H         59.65087      121.95026       67.59539
H         58.55320      119.85013       68.32809
H         58.15009      120.58280       69.92964
H         57.38028      121.19479       68.43539
N         58.25414      124.01036       68.87141
C         57.65807      123.95753       67.53795
C         56.28167      124.62587       67.51038
O         56.18887      125.75403       67.97577
C         58.57274      124.72759       66.57975
H         58.15721      124.89615       69.39398
H         57.62223      122.92861       67.15054
H         59.58221      124.26484       66.56071
H         58.15731      124.69875       65.54924
H         58.67827      125.78809       66.89556
N         55.17833      124.08718       66.90135
C         55.15186      122.80146       66.21079
C         55.06973      121.61425       67.15519
O         55.25095      120.49690       66.69033
C         54.01404      122.72253       65.15904
C         52.56018      122.50277       65.64387
C         51.96032      123.60080       66.47852
O         51.02957      124.25834       66.04053
O         52.37088      123.80430       67.74403
H         54.35979      124.70496       66.82218
H         56.08584      122.74483       65.61075
H         54.23896      121.84456       64.51231
H         54.06184      123.62155       64.50658
H         52.47319      121.54549       66.20045
H         51.94520      122.40048       64.72205
N         54.74524      121.76451       68.47293
C         54.60236      120.65056       69.38982
H         53.55592      120.61336       69.76043
H         54.83705      119.67448       68.91540
H         55.28449      120.79358       70.25285
H         54.55443      122.70200       68.85331
Ca        66.86119      122.13335       73.38240
O         65.78341      123.22780       70.60822
H         66.63995      123.63251       70.88997
H         65.59392      123.63564       69.72653
O         63.95433      123.48454       73.29802
H         63.52527      123.70832       72.43407
H         63.61978      124.17196       73.92729

Ca 1.0



