%chk=apoCaM-CA-Ng.loop3.water4.frame1012.chk
%nprocshared=20
%mem=10GB
%nosave
#b3lyp/svp scf=(tight,noincore,xqc) Test 
#IOP(5/87=12) Density=Current Pop=(MK,readradii) iop(6/33=2) iop(6/42=6)

apoCaM-CA-Ng.loop3.water4.frame1012 

   0  1 
C         33.70865       30.15121        7.67741
C         32.95421       30.49609        6.42725
O         32.10859       31.37791        6.47333
H         34.26396       31.04466        8.03217
H         32.99757       29.82384        8.46336
H         34.43890       29.33362        7.49814
N         33.22744       29.84819        5.26123
C         32.55601       30.13539        4.00168
C         31.87772       28.88391        3.45765
O         30.66223       28.89743        3.32193
C         33.50779       30.86679        3.01541
C         34.89868       30.32215        2.76100
O         35.65161       30.95732        2.04275
O         35.37033       29.21230        3.35240
H         33.95785       29.12334        5.27043
H         31.73731       30.86925        4.16533
H         33.67425       31.88227        3.43889
H         32.97872       30.99775        2.04580
N         32.58063       27.76513        3.13234
C         31.97872       26.54683        2.60974
C         32.44437       26.37983        1.18096
O         33.14624       25.43418        0.84959
C         32.32763       25.35842        3.52904
C         31.64809       25.51134        4.90093
C         32.01578       24.36256        5.84620
C         31.26179       24.48892        7.17842
N         31.65925       23.43334        8.10924
H         33.59823       27.75787        3.24241
H         30.86939       26.61026        2.56407
H         33.43139       25.28586        3.64560
H         31.95761       24.41579        3.06790
H         30.54530       25.52575        4.75020
H         31.95337       26.47052        5.37337
H         33.11142       24.38926        6.03361
H         31.75544       23.38849        5.37693
H         30.16681       24.41941        6.98848
H         31.47407       25.47857        7.64062
H         31.10643       23.52900        8.99174
H         31.47344       22.49225        7.69272
H         32.67601       23.52468        8.33727
N         32.02653       27.29850        0.26707
C         32.36628       27.28229       -1.14693
C         32.93537       28.63617       -1.53132
O         32.34591       29.33115       -2.34874
C         31.11816       26.88853       -1.97885
C         29.90957       27.79291       -1.86767
O         28.90489       27.51672       -2.50221
O         29.91229       28.89984       -1.09919
H         31.39863       28.04496        0.59923
H         33.13586       26.50789       -1.36135
H         30.80693       25.86868       -1.66494
H         31.41405       26.83871       -3.04959
N         34.09235       29.08325       -0.96758
C         34.60440       30.42281       -1.20977
C         35.86331       30.42468       -2.03393
O         36.33485       29.36194       -2.41351
H         34.61762       28.46542       -0.32928
H         34.78516       30.90576       -0.23808
H         33.85999       31.03295       -1.76066
N         36.45572       31.59083       -2.42358
C         35.99112       32.92514       -2.03955
C         36.31512       33.18279       -0.56990
O         37.48636       33.09424       -0.23042
C         36.71518       33.98888       -2.90968
C         36.28155       35.42266       -2.67320
N         36.86444       36.42385       -3.37065
O         35.41098       35.69298       -1.86129
H         37.26721       31.51816       -3.05848
H         34.91198       33.01456       -2.27495
H         36.52460       33.75774       -3.98052
H         37.81110       33.92277       -2.73358
H         37.60382       36.22426       -4.05948
H         36.57813       37.40267       -3.21768
N         35.39749       33.56122        0.36946
C         33.96369       33.70041        0.14766
C         33.29974       34.56605        1.19629
O         33.97593       35.13831        2.04509
H         35.77012       33.77426        1.30859
H         33.49170       32.69875        0.12761
H         33.75617       34.20886       -0.81289
N         31.95107       34.73874        1.17141
C         31.26193       35.67720        2.05041
C         29.75522       35.46615        1.98677
O         29.23438       35.26031        0.89629
C         31.60955       37.12112        1.61169
C         31.25626       38.14629        2.65789
C         30.27722       39.12362        2.42110
C         31.94930       38.14919        3.88088
C         29.99514       40.08649        3.39731
C         31.67206       39.11465        4.84969
C         30.69318       40.08840        4.61111
O         30.42154       41.03125        5.53573
H         31.41143       34.19931        0.47871
H         31.60607       35.49510        3.09335
H         31.10858       37.33018        0.63994
H         32.69998       37.23431        1.43559
H         29.73514       39.14308        1.48414
H         32.71926       37.41279        4.07682
H         29.23909       40.83750        3.20725
H         32.22440       39.10805        5.78115
H         30.89293       41.07266        6.38044
N         28.98547       35.54052        3.11176
C         27.53474       35.30175        3.12243
C         26.77152       36.11300        2.08136
O         27.31016       37.03360        1.48484
C         26.89879       35.57381        4.53222
C         27.29904       34.54038        5.60771
C         27.20798       37.00443        5.02618
C         26.69225       33.16040        5.33747
H         29.46523       35.76042        3.99711
H         27.37992       34.24711        2.81592
H         25.79111       35.51161        4.45245
H         26.88681       34.86812        6.58804
H         28.40278       34.47205        5.70512
H         26.86887       37.75888        4.28590
H         26.67091       37.20373        5.97793
H         28.28932       37.15940        5.21728
H         25.58370       33.23335        5.29027
H         27.05353       32.72943        4.38722
H         26.96058       32.46669        6.16112
N         25.47532       35.76971        1.81497
C         24.63698       36.43663        0.82780
C         24.16280       35.45651       -0.24179
O         24.45081       34.27171       -0.15832
C         23.45316       37.09961        1.55169
O         22.70863       36.16268        2.28513
H         25.05745       34.98396        2.33642
H         25.21105       37.23453        0.30901
H         22.79472       37.65321        0.84644
H         23.85219       37.85461        2.26292
H         22.13822       35.67493        1.63660
N         23.44179       35.92221       -1.30496
C         22.96925       35.12197       -2.43230
C         21.93482       34.08749       -2.02037
O         22.10082       32.91229       -2.32233
C         24.15143       34.50709       -3.20230
H         23.23513       36.93103       -1.34279
H         22.45146       35.81128       -3.13570
H         24.70586       33.77211       -2.58248
H         23.78433       33.98318       -4.11086
H         24.85359       35.30581       -3.52042
N         20.81159       34.47239       -1.34111
C         19.70698       33.58003       -0.98140
C         20.09852       32.43823       -0.04497
O         19.23770       31.62303        0.25842
C         19.03791       33.03614       -2.25513
H         20.71124       35.46807       -1.09070
H         18.93389       34.18025       -0.45200
H         19.72270       32.38796       -2.83868
H         18.13694       32.43982       -1.99530
H         18.71183       33.88143       -2.89816
N         21.36088       32.30259        0.45387
C         21.77381       31.18302        1.28796
C         21.00328       31.16287        2.58957
O         20.34849       30.16653        2.86690
C         23.30446       31.22485        1.48225
C         23.82702       30.07882        2.35743
C         25.29171       29.86104        2.11267
O         26.18434       30.85512        2.25999
O         25.67641       28.77542        1.70854
H         22.07361       33.00468        0.22440
H         21.56378       30.23586        0.73867
H         23.64794       32.19559        1.90571
H         23.73628       31.12674        0.45957
H         23.30306       29.13481        2.09274
H         23.62632       30.30566        3.42701
N         21.01269       32.22956        3.43076
C         20.26287       32.22174        4.66818
H         19.18352       32.05813        4.45688
H         20.63345       31.40915        5.32905
H         20.37959       33.19331        5.19110
H         21.55074       33.07266        3.18036
Ca        28.25140       30.37293        1.48658
O         30.11583       32.06260        0.09087
H         30.29521       32.35608       -0.83701
H         29.36822       32.63832        0.39207
O         29.15541       31.41780        3.90663
H         29.12402       30.76071        4.64631
H         29.63220       32.20076        4.27815
O         26.37634       29.71738       -1.12397
H         25.99340       30.37623       -1.75559
H         27.24808       29.47145       -1.52195
O         28.41235       27.31586        1.64052
H         28.17567       26.70674        0.89701
H         28.16452       26.81883        2.46033

Ca 1.0



