%chk=apoCaM-CA-Ng.loop3.water4.frame1065.chk
%nprocshared=20
%mem=10GB
%nosave
#b3lyp/svp scf=(tight,noincore,xqc) Test 
#IOP(5/87=12) Density=Current Pop=(MK,readradii) iop(6/33=2) iop(6/42=6)

apoCaM-CA-Ng.loop3.water4.frame1065 

   0  1 
C         22.91247       94.05829       32.59235
C         23.65087       95.34952       32.78723
O         24.72153       95.34321       33.37679
H         21.96030       94.21723       32.04097
H         23.54007       93.35366       32.00999
H         22.67144       93.61605       33.58076
N         23.11746       96.50717       32.31923
C         23.73466       97.81430       32.46746
C         22.88492       98.68078       33.38444
O         23.44620       99.24367       34.31393
C         24.04374       98.43533       31.08187
C         22.93352       98.35685       30.05817
O         23.12264       97.75387       29.01389
O         21.74299       98.94632       30.25853
H         22.20678       96.46375       31.83816
H         24.73002       97.74219       32.96550
H         24.90723       97.87455       30.65654
H         24.38647       99.48424       31.21685
N         21.53804       98.83030       33.21399
C         20.71443       99.66425       34.08209
C         20.33707      100.90944       33.29554
O         19.16658      101.19649       33.08830
C         19.48315       98.87982       34.60469
C         19.84479       97.58530       35.36310
C         18.60262       96.75632       35.75459
C         17.71913       97.41327       36.82951
N         16.56469       96.56694       37.14133
H         21.06643       98.35454       32.43563
H         21.29234      100.01154       34.96871
H         18.84690       98.60569       33.73649
H         18.90242       99.54898       35.27521
H         20.45545       97.80874       36.26551
H         20.45214       96.94658       34.68635
H         18.95054       95.77867       36.15437
H         17.99853       96.55564       34.84256
H         17.35027       98.40116       36.48289
H         18.32066       97.56538       37.75320
H         15.99781       97.01869       37.89518
H         15.96358       96.45357       36.29253
H         16.87941       95.62689       37.47527
N         21.34215      101.71141       32.84688
C         21.17376      102.97414       32.12714
C         21.96684      103.00460       30.81387
O         21.99601      104.05118       30.18156
C         21.66005      104.10626       33.06213
C         23.07593      103.85526       33.50049
O         23.98938      103.84648       32.69004
O         23.30651      103.46108       34.76271
H         22.30594      101.43055       33.08517
H         20.10287      103.16281       31.89478
H         21.00665      104.09833       33.96225
H         21.56922      105.10589       32.58620
N         22.66591      101.91957       30.36589
C         23.57395      101.92388       29.22440
C         22.95073      102.31852       27.90454
O         21.76663      102.61950       27.85997
H         22.61651      101.04738       30.89777
H         23.99736      100.90710       29.11301
H         24.39820      102.63483       29.44282
N         23.69305      102.39379       26.75933
C         25.09591      101.98811       26.63571
C         25.19027      100.46629       26.62790
O         24.52373       99.86214       25.79921
C         25.67017      102.51083       25.29267
C         27.09844      102.07246       25.04418
N         28.10360      102.45099       25.86724
O         27.34707      101.36570       24.07847
H         23.22076      102.76191       25.91762
H         25.69645      102.45673       27.44144
H         25.63008      103.62135       25.27780
H         25.03680      102.13702       24.45711
H         27.92317      103.05482       26.68147
H         29.06969      102.13685       25.68875
N         26.02302       99.74907       27.43576
C         26.88556      100.32034       28.46223
C         27.84209       99.30279       29.04693
O         27.91709       98.17951       28.56009
H         26.03775       98.72891       27.27981
H         26.25362      100.73361       29.27350
H         27.51034      101.13170       28.04426
N         28.61402       99.62799       30.12073
C         29.53462       98.66401       30.71824
C         29.85940       99.00448       32.16597
O         29.62747      100.12459       32.60212
C         30.80963       98.56893       29.83613
C         31.77697       97.47855       30.22852
C         33.09848       97.78664       30.59953
C         31.37135       96.13458       30.19617
C         33.99329       96.76537       30.93767
C         32.26538       95.11701       30.53820
C         33.58055       95.42903       30.91014
O         34.45337       94.45556       31.23941
H         28.48376      100.56017       30.54480
H         28.99711       97.69074       30.76309
H         31.31601       99.56050       29.85285
H         30.51826       98.37163       28.78278
H         33.44121       98.81385       30.62233
H         30.36204       95.87520       29.90429
H         35.00979       97.01218       31.21887
H         31.93467       94.08679       30.51077
H         34.20597       93.51969       31.23268
N         30.36197       98.04365       32.99069
C         30.66370       98.26755       34.40643
C         31.65567       99.40361       34.61383
O         32.26142       99.87957       33.66410
C         31.18743       96.96916       35.12500
C         30.01682       96.04970       35.54180
C         32.26285       96.21506       34.30495
C         30.46743       94.84978       36.38348
H         30.48785       97.10800       32.58878
H         29.72971       98.61181       34.90484
H         31.66336       97.28071       36.07952
H         29.45014       95.69407       34.65586
H         29.32884       96.64808       36.18020
H         32.74254       95.42152       34.91154
H         31.82786       95.70387       33.42156
H         33.06045       96.90671       33.96596
H         29.57938       94.29518       36.75156
H         31.08100       94.14742       35.78349
H         31.05626       95.19037       37.26326
N         31.84346       99.89017       35.87849
C         32.78654      100.94945       36.21218
C         32.10553      102.13480       36.89729
O         30.90758      102.10929       37.14053
C         33.89265      100.34937       37.09265
O         33.34750       99.83348       38.27816
H         31.30831       99.46884       36.65362
H         33.26714      101.34012       35.28914
H         34.66349      101.10785       37.34105
H         34.38295       99.53825       36.50358
H         33.94103       99.09096       38.56391
N         32.85567      103.23347       37.20445
C         32.38408      104.48365       37.79376
C         31.85781      104.33840       39.21415
O         30.83057      104.92509       39.53048
C         31.38519      105.19049       36.86193
H         33.85805      103.20643       36.96643
H         33.27379      105.14654       37.87775
H         31.12394      106.19282       37.26493
H         31.83549      105.32883       35.85687
H         30.44949      104.60174       36.75729
N         32.54505      103.61078       40.14712
C         32.19905      103.55646       41.57075
C         30.78733      103.05585       41.86982
O         30.39770      103.09797       43.02949
C         32.41582      104.94170       42.19969
H         33.38822      103.09866       39.84701
H         32.90918      102.87002       42.08314
H         32.25268      104.89768       43.29837
H         33.46285      105.26997       42.02714
H         31.72651      105.69932       41.77456
N         29.95939      102.57458       40.89943
C         28.57967      102.18168       41.15885
C         28.53688      101.05206       42.16170
O         27.89069      101.20072       43.19045
C         27.86228      101.80558       39.84640
C         27.75307      103.03294       38.92236
C         26.98298      102.71895       37.68465
O         27.39641      101.88649       36.89296
O         25.83513      103.37687       37.43663
H         30.31209      102.48228       39.93940
H         28.02453      103.04856       41.58670
H         26.83085      101.46447       40.08820
H         28.39624      100.97579       39.33202
H         28.75209      103.40731       38.62085
H         27.22636      103.84815       39.46504
N         29.24253       99.90907       41.95523
C         29.26975       98.84743       42.93656
H         29.65803       99.23884       43.90246
H         28.24704       98.44279       43.08772
H         29.93809       98.03063       42.59351
H         29.80324       99.80376       41.09626
Ca        25.12989      102.18970       35.05658
O         26.62467      104.71164       34.87305
H         27.42003      104.58238       34.29821
H         26.19769      105.53742       34.53342
O         22.97977      101.58808       37.19495
H         22.05225      101.50971       37.53177
H         23.53379      101.13365       37.87824
O         25.46696       99.48139       36.40913
H         25.75090       99.30763       37.34106
H         25.43494       98.58691       35.98615
O         27.20607      101.06381       33.53039
H         27.23900      101.40694       32.60234
H         27.00351      100.09917       33.43559

Ca 1.0



