%chk=apoCaM-CA-Ng.loop2.water7.frame59.chk
%nprocshared=20
%mem=10GB
%nosave
#b3lyp/svp scf=(tight,noincore,xqc) Test 
#IOP(5/87=12) Density=Current Pop=(MK,readradii) iop(6/33=2) iop(6/42=6)

apoCaM-CA-Ng.loop2.water7.frame59 

   -2  1 
C         62.94770       65.89252       92.75947
C         63.99324       66.67211       92.01063
O         64.58737       66.12677       91.09124
H         62.14412       65.58134       92.05904
H         63.39463       64.98430       93.20928
H         62.49223       66.49664       93.57180
N         64.25300       67.97224       92.33113
C         65.19291       68.79801       91.57670
C         66.63866       68.61843       92.04139
O         67.52479       69.16280       91.39928
C         64.76721       70.27717       91.69513
C         65.57430       71.19053       90.81598
O         65.57344       71.03744       89.60476
O         66.29871       72.18562       91.36174
H         63.69453       68.41162       93.07974
H         65.11307       68.51467       90.50271
H         64.85777       70.59922       92.75636
H         63.70114       70.37356       91.39445
N         66.95371       67.89792       93.15682
C         68.30569       67.71634       93.67763
C         69.18926       66.95705       92.70384
O         70.32199       67.35709       92.46860
C         68.91752       69.05617       94.12573
H         66.19828       67.45250       93.69604
H         68.22621       67.08086       94.58291
H         69.90689       68.88914       94.60281
H         69.06151       69.74532       93.26776
H         68.25269       69.54849       94.86628
N         68.71750       65.82752       92.09900
C         69.50406       64.96565       91.22041
C         70.04663       65.67781       89.98921
O         70.83581       65.07375       89.27510
C         70.61961       64.26239       92.02006
C         70.03374       63.39684       93.10160
O         70.33650       63.62628       94.39274
O         69.28654       62.47512       92.81083
H         67.74545       65.55217       92.27879
H         68.84729       64.15571       90.83293
H         71.31531       65.00647       92.45915
H         71.20384       63.59751       91.34734
N         69.61860       66.92104       89.62286
C         70.06022       67.58708       88.41266
C         69.76225       66.72888       87.21158
O         70.67311       66.43947       86.44868
H         68.90840       67.40890       90.18127
H         71.14840       67.80998       88.47427
H         69.51558       68.55156       88.31268
N         68.50348       66.24529       87.01485
C         68.14574       65.37356       85.90571
C         67.04675       66.01691       85.10229
O         65.96723       66.23923       85.63643
C         67.66190       64.00140       86.41644
C         68.75812       63.21859       87.09278
N         68.61677       62.78150       88.36508
O         69.77711       62.95222       86.47302
H         67.76738       66.49229       87.69552
H         69.01874       65.20109       85.23869
H         67.31424       63.39950       85.54884
H         66.79807       64.13909       87.10505
H         67.76051       62.98002       88.90051
H         69.36377       62.23076       88.81393
N         67.24894       66.34850       83.79745
C         66.19679       66.92974       82.98904
C         65.10539       65.92736       82.68514
O         65.25293       64.74715       82.97406
H         68.17657       66.20622       83.36925
H         66.61318       67.26607       82.01467
H         65.78708       67.81877       83.51488
N         63.97667       66.34981       82.05461
C         62.92524       65.44915       81.58154
C         62.28295       64.56951       82.65278
O         61.60584       63.62653       82.26498
C         61.83468       66.23416       80.80619
C         61.10579       67.25840       81.68913
O         62.41203       66.91171       79.72071
H         63.90992       67.35574       81.84101
H         63.41633       64.74762       80.86979
H         61.06331       65.52344       80.42677
H         62.57660       66.23368       79.01448
H         60.61501       66.75966       82.54390
H         61.79885       68.02763       82.08794
H         60.32429       67.77798       81.09736
N         62.43638       64.78696       83.99118
C         61.92226       63.86419       85.00844
C         63.07222       63.33899       85.84473
O         64.20732       63.74313       85.62565
C         60.80759       64.51576       85.88289
C         61.30804       65.76247       86.65501
C         59.57563       64.81484       85.01320
C         60.27036       66.32325       87.63067
H         62.95978       65.61612       84.30805
H         61.47060       62.96636       84.53140
H         60.47773       63.76373       86.63112
H         61.60472       66.56538       85.94789
H         62.19796       65.47845       87.25719
H         59.24617       63.89101       84.49031
H         58.71886       65.15521       85.62747
H         59.80423       65.58845       84.25894
H         59.37399       66.69917       87.09759
H         59.96536       65.54269       88.36023
H         60.71024       67.17620       88.18835
N         62.84841       62.42045       86.82668
C         63.91204       61.88131       87.65485
C         63.94521       60.37405       87.48748
O         64.94864       59.86479       87.00829
C         63.71079       62.35248       89.10391
C         64.91266       62.05490       89.95044
O         65.55710       62.97335       90.42954
O         65.29866       60.78488       90.17038
H         61.88685       62.09351       87.00361
H         64.89458       62.29025       87.32566
H         62.79709       61.91119       89.55466
H         63.57469       63.45838       89.08354
N         62.87793       59.59433       87.84286
C         62.85190       58.14983       87.61460
C         61.67759       57.53098       88.36313
O         60.54860       57.89552       88.06491
C         62.73583       57.85159       86.09553
C         62.99401       56.39922       85.73667
C         64.09131       56.08231       84.91354
C         62.16609       55.35227       86.19033
C         64.36182       54.75694       84.56551
C         62.44633       54.02647       85.84542
C         63.54335       53.72893       85.03504
H         62.07043       60.04384       88.30116
H         63.81137       57.73643       87.98212
H         63.48368       58.47238       85.56165
H         61.74047       58.16933       85.71457
H         64.74261       56.86174       84.53793
H         61.30217       55.54267       86.80765
H         65.20874       54.52831       83.93187
H         61.81002       53.22826       86.20555
H         63.75729       52.70251       84.76737
N         61.84179       56.58203       89.33717
C         60.73559       55.97550       90.06048
C         60.07756       56.98408       90.98832
O         58.85862       56.97625       91.09166
C         61.39381       54.78549       90.77407
C         62.79896       55.26882       91.04117
C         63.12075       56.03691       89.75961
H         59.96044       55.54521       89.38626
H         60.83702       54.38021       91.64614
H         61.49898       53.96613       90.02545
H         62.74424       55.97703       91.89122
H         63.53979       54.48549       91.30770
H         63.87478       56.81428       90.00736
H         63.49413       55.36747       88.95356
N         60.81552       57.91005       91.66455
C         60.23960       58.89196       92.57963
C         59.34578       59.91964       91.88513
O         58.76149       60.73340       92.58815
C         61.36814       59.60671       93.35960
C         62.13574       58.61059       94.24924
C         63.22820       59.28403       95.02031
O         64.38260       58.91078       94.89438
O         62.93831       60.27869       95.87970
H         61.83515       57.91376       91.53121
H         59.61136       58.35315       93.32360
H         60.92764       60.38516       94.02051
H         62.06108       60.10638       92.64477
H         62.58218       57.80011       93.63593
H         61.43168       58.14732       94.97274
N         59.16569       59.95212       90.53355
C         58.27659       60.90155       89.89899
H         57.24292       60.76833       90.28530
H         58.61832       61.93852       90.09894
H         58.26392       60.73378       88.80055
H         59.65587       59.29010       89.92331
Ca        67.47671       62.41385       95.18321
O         66.81155       65.20181       95.70503
H         67.40857       65.64808       96.35596
H         66.05845       65.83168       95.58086
O         66.40721       60.14894       97.01574
H         66.49154       59.97923       96.04421
H         65.52204       60.58095       97.11654
O         69.85122       60.60790       95.71050
H         69.19198       60.08633       95.18688
H         69.56169       60.50006       96.65128
O         64.44129       63.04572       95.73449
H         63.87871       63.77087       95.36373
H         64.47772       62.36746       95.01396
O         66.24320       60.47320       93.17445
H         65.72584       59.73574       92.76545
H         65.84567       61.29064       92.78649
O         67.49472       62.94152       98.14311
H         66.52120       62.80454       98.26064
H         67.61787       63.92067       98.21912
O         65.79029       63.83952       93.13052
H         65.80008       64.82530       93.19678
H         66.65189       63.60595       92.70376

Ca 1.0



