%chk=apoCaM-CA-Ng.loop1.water3.frame987.chk
%nprocshared=20
%mem=10GB
%nosave
#b3lyp/svp scf=(tight,noincore,xqc) Test 
#IOP(5/87=12) Density=Current Pop=(MK,readradii) iop(6/33=2) iop(6/42=6)

apoCaM-CA-Ng.loop1.water3.frame987 

   0  1 
C         70.26303       82.45508       42.68707
C         69.98317       81.31676       43.62017
O         69.22524       80.42812       43.25676
H         71.34848       82.49730       42.46308
H         69.70357       82.32710       41.73498
H         69.94491       83.40851       43.15873
N         70.55270       81.29172       44.85990
C         70.28490       80.23659       45.83623
C         69.51348       80.78091       47.07202
O         69.05548       82.08125       46.82275
C         71.58111       79.49293       46.23376
C         72.66445       80.31975       46.88542
O         73.82016       79.72497       47.23631
O         72.52524       81.51188       47.09566
H         71.16695       82.07508       45.12638
H         69.63695       79.46634       45.36174
H         72.01538       79.04344       45.31476
H         71.31844       78.66724       46.92920
N         68.38128       79.87677       47.35706
C         67.28829       80.40284       48.19793
C         67.63436       80.30827       49.67499
O         67.90777       79.21766       50.15606
C         65.99939       79.63299       47.85239
C         64.74651       80.26203       48.48658
C         63.47225       79.56638       47.97931
C         62.17592       80.25519       48.44108
N         61.99841       80.21106       49.89251
H         68.71382       78.93762       47.67837
H         67.07989       81.45716       47.91688
H         66.09123       78.56197       48.13796
H         65.87356       79.68496       46.74730
H         64.69909       81.33303       48.18993
H         64.81460       80.19797       49.59279
H         63.46954       78.49975       48.29226
H         63.47319       79.60045       46.86720
H         61.31852       79.73372       47.95990
H         62.16680       81.31242       48.09315
H         61.07420       80.63856       50.13092
H         62.00694       79.21981       50.22519
H         62.74501       80.75998       50.37415
N         67.62495       81.42898       50.45262
C         67.99599       81.44827       51.87544
C         67.71203       82.82596       52.50786
O         67.45443       83.76487       51.76803
C         69.49695       81.06077       52.00790
C         70.39512       81.93340       51.16677
O         70.47276       83.25808       51.39491
O         71.06574       81.43780       50.27466
H         67.33294       82.30121       49.99295
H         67.35888       80.71036       52.40522
H         69.63381       80.00814       51.68507
H         69.85094       81.10508       53.04874
N         67.72921       83.08312       53.85382
C         67.91626       82.13529       54.94394
C         66.74205       81.20438       55.15045
O         65.77178       81.25308       54.40722
H         67.58408       84.06435       54.14089
H         68.00499       82.71564       55.88842
H         68.85590       81.57104       54.83481
N         66.77898       80.31654       56.18700
C         65.70331       79.36903       56.47589
C         64.41491       80.02059       56.97249
O         63.41438       79.32028       57.04408
C         66.17264       78.30106       57.49384
C         66.54906       78.82846       58.86052
O         66.98032       77.96574       59.79955
O         66.47569       80.01696       59.13211
H         67.63807       80.28476       56.75760
H         65.47508       78.83550       55.52642
H         67.05877       77.78188       57.07029
H         65.36757       77.54592       57.62487
N         64.36026       81.32743       57.36054
C         63.14135       81.97271       57.82911
C         62.74639       83.13847       56.95193
O         61.76105       83.78927       57.27106
H         65.21642       81.90040       57.34339
H         63.31217       82.34233       58.86314
H         62.28387       81.26668       57.85889
N         63.45816       83.46770       55.83504
C         63.14052       84.59224       54.97036
C         64.29249       85.57679       54.98142
O         65.37177       85.25786       55.46610
C         62.86260       84.06233       53.53976
C         61.59137       83.20953       53.50894
O         62.71262       85.12271       52.63195
H         64.27839       82.91042       55.56762
H         62.24975       85.13925       55.35036
H         63.73811       83.43484       53.23889
H         63.01295       84.78779       51.74560
H         61.66478       82.35364       54.21164
H         60.71425       83.83258       53.78881
H         61.42991       82.81062       52.48529
N         64.10797       86.83076       54.48191
C         65.16852       87.83266       54.44729
C         65.60559       88.21679       55.86785
O         66.68898       88.75984       56.02345
C         64.74378       89.06816       53.58707
C         64.16690       88.67138       52.19115
C         65.90068       90.06708       53.40062
C         65.07465       87.77665       51.34158
H         63.17368       87.06494       54.12296
H         66.03857       87.35281       53.94535
H         63.92840       89.60447       54.12200
H         63.92777       89.59470       51.62120
H         63.20155       88.14000       52.30510
H         66.24086       90.47824       54.37047
H         66.76445       89.59078       52.89242
H         65.56009       90.93251       52.79336
H         66.04091       88.27213       51.12407
H         65.25972       86.80572       51.84739
H         64.56790       87.55534       50.37860
N         64.83956       87.89327       56.95400
C         65.26857       88.06037       58.33989
C         64.26153       88.87563       59.14260
O         63.27168       89.33612       58.59302
C         65.51730       86.65697       58.95843
C         64.27081       85.76568       58.96640
O         66.52998       86.00100       58.24003
H         63.92224       87.45456       56.80585
H         66.23546       88.60794       58.39060
H         65.84422       86.75459       60.01697
H         67.38619       86.44384       58.48120
H         64.51287       84.79157       59.43953
H         63.44731       86.24352       59.53645
H         63.92374       85.55592       57.93626
N         64.48300       89.09804       60.47199
C         63.63647       89.92394       61.32308
C         64.50011       91.06563       61.82140
O         64.26445       92.20045       61.42617
C         62.99304       89.05744       62.44388
C         62.18648       89.89420       63.44238
O         63.96758       88.31921       63.13614
H         65.32360       88.69135       60.90527
H         62.80236       90.36446       60.73175
H         62.30329       88.34580       61.93098
H         63.51807       87.52008       63.51724
H         61.38874       90.46186       62.92073
H         61.71371       89.22547       64.19356
H         62.84876       90.60420       63.98305
N         65.54855       90.83104       62.65723
C         66.54265       91.83246       63.01021
C         67.93744       91.23760       62.89474
O         68.07224       90.02771       62.74825
C         66.26218       92.41336       64.40858
C         66.20090       91.35102       65.51690
C         65.88099       92.00048       66.86784
C         65.75138       90.94471       67.97241
N         65.43727       91.57052       69.25631
H         65.68713       89.88118       63.02543
H         66.48792       92.67594       62.28583
H         65.27862       92.93208       64.36920
H         67.03694       93.17211       64.65438
H         67.17142       90.81324       65.58194
H         65.39850       90.61923       65.27917
H         64.92027       92.55606       66.78996
H         66.68835       92.71831       67.13190
H         66.70466       90.37814       68.06174
H         64.94038       90.22970       67.70714
H         66.20172       92.22917       69.53146
H         64.53118       92.08941       69.19156
H         65.34961       90.82801       69.98706
N         69.03304       92.04308       62.90944
C         70.39170       91.53003       62.77590
C         70.54594       90.64915       61.53089
O         70.97837       89.51810       61.70111
C         71.41904       92.68303       62.82339
C         72.87157       92.17334       62.78535
C         73.88825       93.28200       62.86061
O         73.54862       94.45297       62.93774
O         75.19889       92.97521       62.83838
H         68.88998       93.06223       62.99591
H         70.60294       90.89286       63.66597
H         71.26762       93.24331       63.77271
H         71.25818       93.39086       61.99040
H         73.04739       91.61549       61.84108
H         73.03958       91.48558       63.64211
N         70.20433       91.02147       60.26152
C         69.60449       92.28411       59.88892
H         68.63457       92.42325       60.40685
H         70.28442       93.12739       60.09783
H         69.39959       92.28702       58.79722
H         70.34738       90.33455       59.50411
Ca        70.61824       83.43830       47.79610
O         73.50870       83.34889       49.35594
H         73.68464       83.62066       50.29157
H         74.40571       83.18186       48.97146
O         68.20070       84.43708       48.79124
H         67.88475       85.09668       49.45678
H         67.44963       84.33519       48.15476
O         71.72269       85.95981       49.65944
H         72.42212       86.21809       50.31115
H         70.87758       85.99618       50.17412

Ca 1.0



