%chk=apoCaM-CA-Ng.loop1.water4.frame423.chk
%nprocshared=20
%mem=10GB
%nosave
#b3lyp/svp scf=(tight,noincore,xqc) Test 
#IOP(5/87=12) Density=Current Pop=(MK,readradii) iop(6/33=2) iop(6/42=6)

apoCaM-CA-Ng.loop1.water4.frame423 

   0  1 
C        103.92389       80.92911       68.87912
C        103.94383       82.39659       68.58310
O        102.95670       82.92483       68.09105
H        102.96475       80.47453       68.55296
H        104.76063       80.42440       68.35179
H        104.03908       80.78064       69.97322
N        105.06698       83.11861       68.83960
C        105.16462       84.55220       68.61316
C        105.98746       84.84929       67.37306
O        106.29095       86.00613       67.15427
C        105.78036       85.24487       69.85249
C        105.00968       84.97325       71.11552
O        104.95349       83.84327       71.57335
O        104.39790       85.98084       71.76522
H        105.90502       82.62536       69.18736
H        104.16326       85.00126       68.44738
H        105.78232       86.34146       69.67711
H        106.83472       84.92110       69.99790
N        106.35178       83.87902       66.48643
C        107.20593       84.13240       65.33282
C        106.46278       83.90793       64.02341
O        105.79116       82.89146       63.91958
C        108.43535       83.20947       65.40840
C        109.35140       83.60661       66.57249
C        110.68877       82.85957       66.49802
C        111.67771       83.30579       67.58668
N        111.23105       82.93540       68.92985
H        106.03257       82.90973       66.62750
H        107.57983       85.16184       65.35073
H        109.01467       83.31358       64.47769
H        108.13366       82.14159       65.48135
H        108.82644       83.41241       67.53076
H        109.57385       84.69378       66.49607
H        111.15618       83.08983       65.51422
H        110.52598       81.76200       66.55634
H        111.83431       84.40632       67.52983
H        112.65495       82.81345       67.38767
H        110.34558       83.42872       69.18022
H        111.09302       81.90021       68.98644
H        111.96615       83.21528       69.61830
N        106.57669       84.72827       62.92257
C        107.40886       85.92923       62.77289
C        108.84885       85.65541       63.17299
O        109.32099       86.28826       64.09683
C        106.81116       87.15594       63.52312
C        105.47231       87.57718       62.98990
O        104.92349       88.56254       63.45611
O        104.87816       86.88722       61.99688
H        106.07760       84.42909       62.07000
H        107.42848       86.22323       61.69926
H        107.49726       88.02215       63.38579
H        106.71224       86.97671       64.61063
N        109.63997       84.71820       62.59033
C        109.28795       83.91879       61.42941
C        110.34983       82.85853       61.15447
O        111.18780       82.61814       62.01220
H        110.57139       84.59906       63.01507
H        109.20515       84.62027       60.57227
H        108.32340       83.39232       61.57522
N        110.43130       82.16790       59.98468
C        109.56965       82.36494       58.82603
C        110.29268       83.13667       57.73080
O        109.63397       83.87540       57.01157
C        108.97540       81.02799       58.33221
C        109.95935       79.97077       57.87768
O        109.53309       78.89371       57.49453
O        111.28988       80.17546       57.88405
H        111.21173       81.50080       59.90562
H        108.69878       82.99220       59.10939
H        108.28909       81.24116       57.48478
H        108.37643       80.59505       59.16208
N        111.65104       83.10052       57.61233
C        112.41061       83.91538       56.68588
C        113.24057       84.86523       57.50196
O        114.45912       84.76185       57.50155
H        112.20719       82.50170       58.23659
H        111.76355       84.50552       56.00114
H        113.04878       83.24909       56.06535
N        112.61453       85.82338       58.24145
C        113.29875       86.74928       59.13983
C        112.70675       86.65214       60.54259
O        111.68328       86.00183       60.71231
C        113.25602       88.18942       58.56800
C        111.84189       88.67331       58.20764
O        114.09072       88.29048       57.43974
H        111.58724       85.89353       58.16474
H        114.36857       86.45957       59.23636
H        113.67192       88.87482       59.33665
H        113.76154       87.65487       56.75193
H        111.16849       88.62457       59.08747
H        111.88771       89.72142       57.84460
H        111.41096       88.05824       57.38773
N        113.36408       87.18802       61.61806
C        112.93820       86.96148       63.00100
C        112.85925       88.26995       63.78060
O        113.89266       88.86933       64.04786
C        113.92915       85.96787       63.68925
C        113.95037       84.61228       62.93152
C        113.56218       85.74993       65.17351
C        115.06336       83.66540       63.38085
H        114.26084       87.67280       61.45797
H        111.93349       86.49176       63.01664
H        114.94737       86.41472       63.63837
H        114.12821       84.78286       61.85037
H        112.96846       84.11029       63.04534
H        113.58485       86.70554       65.73645
H        112.54548       85.31238       65.26103
H        114.28902       85.08290       65.67678
H        115.02057       82.73825       62.77034
H        116.05280       84.14443       63.22017
H        114.96070       83.37337       64.44357
N        111.65351       88.74869       64.20514
C        111.48990       89.91443       65.07924
C        110.50651       89.67552       66.24225
O        110.35042       90.57411       67.05622
C        111.01546       91.12865       64.24271
C        109.68695       90.87388       63.51801
O        111.98874       91.45520       63.28548
H        110.81151       88.28351       63.84301
H        112.46987       90.18386       65.53308
H        110.85887       92.00314       64.91841
H        112.70098       91.95829       63.76119
H        108.88454       90.61325       64.23583
H        109.37953       91.78817       62.96964
H        109.78672       90.05024       62.78057
N        109.76231       88.53263       66.34293
C        108.68603       88.27197       67.29986
C        107.53910       89.28898       67.17021
O        107.68163       90.29176       66.48609
C        109.24109       88.11032       68.74531
C        110.21230       86.92178       68.81427
O        108.19577       87.86412       69.64880
H        109.92624       87.78559       65.67616
H        108.25224       87.29518       67.01710
H        109.76287       89.04857       69.03741
H        108.54915       88.02774       70.56232
H        110.60486       86.80748       69.84669
H        109.67942       85.98307       68.54744
H        111.06971       87.05920       68.12428
N        106.35527       89.07357       67.81484
C        105.24599       90.02516       67.86119
C        103.90240       89.41517       67.43112
O        102.88978       90.08680       67.56961
C        105.21522       90.65395       69.27476
C        105.05597       89.66056       70.43858
C        105.25988       90.37663       71.78378
C        105.13998       89.44108       72.99924
N        106.18880       88.41695       73.03207
H        106.24985       88.21046       68.35832
H        105.43077       90.88253       67.17688
H        104.41897       91.42822       69.33079
H        106.19230       91.17239       69.40418
H        105.83173       88.88214       70.36011
H        104.05425       89.18154       70.39426
H        104.49535       91.17720       71.88048
H        106.26547       90.85432       71.80439
H        104.13777       88.96024       73.00581
H        105.23006       90.06262       73.91775
H        106.07717       87.84652       73.90112
H        106.11748       87.77260       72.21588
H        107.13394       88.86418       73.04170
N        103.82106       88.19095       66.82828
C        102.57536       87.60456       66.32696
C        101.63281       87.23928       67.45825
O        102.00934       86.45393       68.31689
C        102.88929       86.33308       65.49415
C        101.67102       85.59053       64.90322
C        100.88351       86.38860       63.89751
O        100.79799       85.99847       62.74415
O        100.22042       87.50011       64.26552
H        104.69169       87.68280       66.64557
H        102.09711       88.33819       65.64739
H        103.43024       85.61052       66.14164
H        103.56670       86.60344       64.66080
H        100.99001       85.25565       65.71344
H        102.05953       84.67869       64.39747
N        100.35934       87.72542       67.47583
C         99.36392       87.32557       68.45080
H         98.50858       86.85324       67.92058
H         99.75698       86.59067       69.18442
H         98.99706       88.21726       68.99802
H        100.05835       88.38264       66.74143
Ca       102.87296       87.45836       61.14717
O        100.17015       88.39679       60.29867
H        100.06052       87.95521       59.41920
H         99.54281       89.16201       60.27501
O        104.96122       87.30957       58.86658
H        105.46282       88.11364       58.58020
H        105.66091       86.65791       59.12395
O        101.97111       89.77680       62.93207
H        102.36391       88.97209       63.35218
H        101.51438       90.24220       63.67619
O        102.92389       90.04644       59.60444
H        102.94338       90.76873       60.28129
H        103.75603       90.17106       59.08287

Ca 1.0



