%chk=apoCaM-CA-Ng.loop2.water4.frame1191.chk
%nprocshared=20
%mem=10GB
%nosave
#b3lyp/svp scf=(tight,noincore,xqc) Test 
#IOP(5/87=12) Density=Current Pop=(MK,readradii) iop(6/33=2) iop(6/42=6)

apoCaM-CA-Ng.loop2.water4.frame1191 

   -2  1 
C         40.16657       27.38825       99.12257
C         39.20560       26.37684       99.68535
O         38.07676       26.32945       99.21884
H         41.05755       26.89426       98.69244
H         39.67942       27.97369       98.31360
H         40.47750       28.09598       99.91842
N         39.53300       25.53238      100.70482
C         40.83551       25.46259      101.35313
C         40.64061       25.02226      102.80656
O         39.82306       25.63299      103.48078
C         41.79197       24.57647      100.50602
C         41.28912       23.16264      100.31243
O         42.03106       22.11857      100.72766
O         40.22394       22.95279       99.75403
H         38.79931       24.90476      101.05567
H         41.26102       26.48585      101.42336
H         42.79819       24.56116      100.97664
H         41.92052       25.01605       99.49880
N         41.33271       23.98300      103.35806
C         41.12552       23.45564      104.69902
C         39.73073       22.86773      104.85531
O         39.12189       23.03126      105.90434
C         41.48276       24.48786      105.78290
H         42.04820       23.49610      102.80789
H         41.82982       22.60224      104.81952
H         40.80182       25.36331      105.75289
H         41.41057       24.02873      106.79190
H         42.52462       24.84403      105.63802
N         39.16798       22.14968      103.83751
C         37.89239       21.44879      103.95700
C         38.03160       20.00639      103.48068
O         39.11209       19.60068      103.07655
C         36.76677       22.20955      103.21432
C         36.91512       22.30218      101.72325
O         36.95692       21.29333      101.04108
O         36.89581       23.50365      101.12226
H         39.66321       22.09639      102.93389
H         37.57441       21.41830      105.02214
H         36.69392       23.23436      103.63913
H         35.79648       21.71047      103.41537
N         36.95099       19.17846      103.50332
C         36.93851       17.80317      103.03332
C         37.15935       17.68901      101.50723
O         38.53400       17.76850      101.24544
H         36.06652       19.53897      103.88929
H         35.92691       17.40382      103.26132
H         37.67382       17.18209      103.59140
N         36.68503       16.38748      101.02351
C         36.54603       16.28957       99.55769
C         35.14388       16.63478       99.03331
O         34.91933       16.39791       97.85324
C         36.86155       14.83020       99.16384
C         38.25355       14.42494       99.57681
N         38.44907       13.40696      100.44632
O         39.21563       15.01864       99.11506
H         35.84325       16.00914      101.51627
H         37.28992       16.93867       99.04078
H         36.78998       14.70432       98.06109
H         36.11045       14.15837       99.63488
H         37.65157       12.89145      100.84589
H         39.40337       13.13320      100.72312
N         34.15114       17.17291       99.81006
C         32.77262       17.31777       99.33295
C         31.79221       16.67823      100.30462
O         32.19591       16.36904      101.41746
H         34.35959       17.47521      100.77190
H         32.66790       16.83247       98.34196
H         32.50649       18.39039       99.22690
N         30.48915       16.39788       99.99511
C         29.86185       16.53770       98.68349
C         28.54713       17.29495       98.79115
O         27.67826       16.86344       99.53818
C         29.60967       15.10911       98.13686
C         28.89217       15.10269       96.78404
O         30.84494       14.45440       98.00387
H         29.92209       15.94333      100.72961
H         30.52331       17.06287       97.96595
H         28.97236       14.56000       98.87211
H         30.65806       13.47930       98.01875
H         27.87979       15.53354       96.88859
H         29.46877       15.67711       96.02925
H         28.76478       14.05837       96.43000
N         28.30711       18.40282       98.02517
C         26.99709       19.06065       97.99740
C         26.04675       18.25043       97.11485
O         26.54100       17.47389       96.31039
C         27.12140       20.58304       97.64334
C         27.56496       20.92815       96.19482
C         28.09302       21.24437       98.63894
C         26.49415       20.68569       95.12616
H         29.04716       18.73273       97.38910
H         26.60230       19.02355       99.03601
H         26.14891       21.08226       97.79750
H         28.50839       20.41071       95.92549
H         27.76008       22.02295       96.15181
H         27.74353       21.08833       99.68207
H         29.11959       20.83450       98.53866
H         28.15052       22.33614       98.45811
H         25.56539       21.24139       95.38072
H         26.86360       21.06060       94.14846
H         26.25405       19.61872       94.99083
N         24.68452       18.28926       97.19869
C         23.90924       19.07729       98.14897
C         22.64150       19.62415       97.50382
O         22.32375       19.25272       96.38099
C         23.63194       18.24616       99.42315
C         22.88427       16.95004       99.22180
O         22.48795       16.59956       98.12194
O         22.66372       16.15283      100.28426
H         24.17158       17.62715       96.59476
H         24.49190       19.95435       98.46971
H         23.07255       18.86567      100.15499
H         24.61179       17.98861       99.87983
N         21.89404       20.56773       98.14675
C         20.69337       21.16002       97.56101
C         20.26581       22.39684       98.34179
O         20.02749       22.27014       99.53606
C         19.52981       20.12761       97.49031
C         18.26385       20.71131       96.87850
C         17.44602       21.59602       97.61125
C         17.88546       20.37760       95.56529
C         16.29723       22.14733       97.03863
C         16.73608       20.93797       94.99380
C         15.94591       21.82519       95.72841
H         22.23273       20.91718       99.05662
H         20.93075       21.44734       96.52111
H         19.28937       19.70987       98.49238
H         19.86991       19.27718       96.86354
H         17.68675       21.86293       98.62983
H         18.48698       19.69825       94.97562
H         15.68296       22.83097       97.61166
H         16.45845       20.68814       93.97826
H         15.05985       22.26161       95.28501
N         20.04961       23.60967       97.73106
C         20.19190       23.86975       96.30467
C         21.64266       23.98068       95.88541
O         22.07714       23.25588       95.00139
C         19.46064       25.20923       96.08181
C         18.47457       25.22765       97.23547
C         19.35032       24.70331       98.36903
H         19.63147       23.08723       95.74493
H         20.13292       26.07494       96.26125
H         19.03183       25.33312       95.06422
H         18.01212       26.21877       97.42581
H         17.67553       24.48708       97.02625
H         20.09117       25.48433       98.65144
H         18.75935       24.41039       99.26260
N         22.43026       24.93225       96.46469
C         23.78882       25.23757       96.05918
C         23.77021       26.62842       95.43882
O         23.46312       27.57698       96.14825
C         24.71598       25.22654       97.29083
C         24.82210       23.84016       97.93325
C         25.61614       23.90810       99.20736
O         25.05648       23.52019      100.36944
O         26.76303       24.32567       99.20158
H         22.02565       25.53008       97.20040
H         24.15634       24.48957       95.32846
H         24.31822       25.94428       98.04406
H         25.73456       25.56264       96.99439
H         25.31150       23.14944       97.21658
H         23.81032       23.44685       98.17163
N         24.03886       26.86146       94.12296
C         24.35412       25.82403       93.16624
H         25.29096       25.30515       93.45727
H         23.51587       25.09679       93.10523
H         24.49681       26.27217       92.16014
H         23.98823       27.83182       93.77520
Ca        39.03956       19.66177      100.08214
O         42.49222       19.12499      101.23346
H         43.31836       19.64426      101.06543
H         42.58353       18.80604      102.16615
O         41.83924       20.30218       97.96716
H         42.72656       20.70696       98.13773
H         42.02703       19.54098       97.36229
O         37.54380       20.13453       97.58210
H         36.95487       20.18198       98.37690
H         37.68167       19.16505       97.43465
O         41.19582       17.51836       99.05884
H         40.92274       16.97220       98.27975
H         40.90235       16.99851       99.84847

Ca 1.0



