%chk=apoCaM-CA-Ng.loop1.water6.frame572.chk
%nprocshared=20
%mem=10GB
%nosave
#b3lyp/svp scf=(tight,noincore,xqc) Test 
#IOP(5/87=12) Density=Current Pop=(MK,readradii) iop(6/33=2) iop(6/42=6)

apoCaM-CA-Ng.loop1.water6.frame572 

   0  1 
C         68.59760       38.71509       72.17826
C         67.43998       39.66631       72.21539
O         67.62465       40.81625       72.58827
H         69.52711       39.21203       72.52999
H         68.38683       37.85069       72.84366
H         68.75075       38.35087       71.14196
N         66.19529       39.23240       71.87219
C         65.00325       40.07167       71.95106
C         64.12795       39.57858       73.08649
O         64.46897       38.57537       73.70107
C         64.25116       40.05222       70.60723
C         65.11975       40.53971       69.48064
O         65.62176       41.78915       69.50336
O         65.37023       39.80637       68.53720
H         66.07689       38.24412       71.59746
H         65.28074       41.12089       72.19512
H         63.35329       40.70371       70.66169
H         63.91315       39.01386       70.39165
N         63.01211       40.26867       73.46665
C         62.21870       39.88060       74.62664
C         60.79058       39.59370       74.23707
O         60.08105       40.49837       73.81914
C         62.32742       40.97210       75.70731
C         61.53253       40.70791       77.00164
C         61.73816       39.28757       77.56191
C         61.16337       39.10519       78.97204
N         62.02852       39.71600       79.98343
H         62.74894       41.12448       72.95387
H         62.64097       38.95615       75.07034
H         62.01007       41.95755       75.29886
H         63.40424       41.05071       75.97457
H         60.44399       40.85045       76.81937
H         61.85555       41.48246       77.72689
H         62.81248       39.00565       77.57462
H         61.20269       38.58737       76.88794
H         61.10741       38.01491       79.18556
H         60.13065       39.51665       79.02904
H         61.61256       39.56138       80.92930
H         62.96912       39.25644       79.95875
H         62.13895       40.74145       79.82504
N         60.31524       38.31950       74.34892
C         58.95397       37.92374       74.02657
C         58.38864       37.10943       75.19971
O         59.11449       36.24473       75.67275
C         58.99853       37.08648       72.72819
C         57.67811       37.03896       72.00636
O         57.58826       36.46682       70.79910
O         56.69785       37.61604       72.43896
H         60.97056       37.57464       74.63417
H         58.36635       38.83203       73.80291
H         59.39861       36.06689       72.92212
H         59.68511       37.59258       72.01544
N         57.13595       37.24100       75.73364
C         56.05757       38.03477       75.18322
C         55.15961       38.59635       76.25145
O         55.61499       39.39597       77.05613
H         56.87973       36.57782       76.47793
H         55.45206       37.36005       74.54171
H         56.41765       38.87863       74.57263
N         53.83907       38.24886       76.27307
C         52.85403       38.83892       77.16680
C         52.21196       37.75591       78.01360
O         51.63364       36.82684       77.46756
C         51.80624       39.57209       76.30551
C         50.76686       40.32257       77.09678
O         49.89832       40.94160       76.50414
O         50.78322       40.33755       78.44404
H         53.49479       37.56577       75.58010
H         53.33579       39.59215       77.82805
H         51.29602       38.83973       75.64103
H         52.33579       40.30869       75.66199
N         52.27166       37.82257       79.37222
C         51.70943       36.80940       80.24782
C         52.41238       35.49515       80.04516
O         51.76217       34.49538       79.77732
H         52.74490       38.62473       79.81487
H         50.61457       36.71221       80.07728
H         51.87035       37.12008       81.30240
N         53.76893       35.45016       80.13299
C         54.56252       34.24812       79.91337
C         55.36450       34.39593       78.63664
O         55.26656       35.42305       77.98008
C         55.45245       33.95386       81.15007
C         56.45231       35.07388       81.46855
O         54.64090       33.74323       82.27545
H         54.26731       36.33380       80.31402
H         53.90182       33.36735       79.75694
H         56.05794       33.03740       80.96521
H         54.24317       32.83849       82.17549
H         55.93412       36.01593       81.74115
H         57.07833       34.77669       82.33600
H         57.12217       35.26347       80.60351
N         56.15716       33.37709       78.19957
C         56.86750       33.43850       76.92673
C         55.84765       33.48218       75.80193
O         56.05994       34.19332       74.82933
C         57.85339       32.24489       76.72573
C         58.79373       32.00831       77.94213
C         58.69473       32.45165       75.44571
C         59.59876       33.23084       78.39144
H         56.21769       32.52437       78.76993
H         57.48621       34.36041       76.91461
H         57.26800       31.30739       76.59503
H         59.49585       31.18087       77.69961
H         58.20242       31.66197       78.81306
H         58.05056       32.51709       74.54504
H         59.29427       33.38453       75.50474
H         59.38813       31.59758       75.29401
H         60.22644       32.94989       79.26316
H         60.26501       33.59713       77.58563
H         58.92273       34.04920       78.71607
N         54.68228       32.77772       75.91073
C         53.64330       32.75627       74.89109
C         53.30541       31.32830       74.51316
O         53.74484       30.40273       75.18630
C         52.39049       33.53064       75.37079
C         51.79774       32.99537       76.68315
O         52.73945       34.87918       75.54567
H         54.51242       32.23420       76.77101
H         54.01333       33.25371       73.97098
H         51.61402       33.44495       74.57334
H         51.95107       35.42173       75.28113
H         51.50296       31.93042       76.58158
H         52.52412       33.09370       77.51643
H         50.89582       33.58457       76.95437
N         52.55343       31.07669       73.40613
C         52.20851       29.73236       72.97011
C         53.02002       29.39368       71.73164
O         53.82265       28.47374       71.79652
C         50.67094       29.60814       72.79020
C         50.25128       28.19137       72.38504
O         50.20435       30.52922       71.83753
H         52.25638       31.87280       72.81940
H         52.49799       28.99284       73.75138
H         50.20948       29.84440       73.77778
H         49.22613       30.62662       71.97569
H         49.14444       28.13775       72.30320
H         50.68891       27.91587       71.40223
H         50.58105       27.45956       73.15188
N         52.86190       30.08584       70.56879
C         53.60330       29.78927       69.35036
C         54.12856       31.08173       68.76250
O         53.34819       32.01712       68.63566
C         52.66138       29.08782       68.36184
C         53.44226       28.51943       67.16883
C         52.52107       27.75526       66.21728
C         53.33643       27.07133       65.11316
N         52.46223       26.35801       64.18457
H         52.14783       30.82454       70.52195
H         54.43850       29.08335       69.55612
H         51.85446       29.77780       68.02973
H         52.18920       28.22885       68.88924
H         54.21301       27.81795       67.56035
H         53.95429       29.33485       66.61296
H         51.78877       28.46318       65.77152
H         51.96695       26.97389       66.78292
H         54.04450       26.34785       65.57779
H         53.92755       27.82976       64.55374
H         51.89595       25.64362       64.69758
H         51.82660       27.03511       63.70379
H         53.04906       25.87403       63.46739
N         55.41933       31.21113       68.33581
C         55.89344       32.48211       67.80474
C         55.93358       33.50637       68.92433
O         55.20458       34.47696       68.80496
C         57.22637       32.37101       67.02703
C         57.60676       33.71990       66.38011
C         58.84079       33.63515       65.52341
O         59.50519       32.47305       65.36735
O         59.24439       34.63590       64.95289
H         56.04728       30.39420       68.35862
H         55.15901       32.81501       67.03335
H         57.08051       31.62244       66.21742
H         58.06580       32.02886       67.65919
H         57.78524       34.47695       67.17453
H         56.76864       34.07217       65.73922
N         56.70252       33.40103       70.05130
C         57.59254       32.30937       70.39504
H         58.62865       32.69776       70.49159
H         57.28260       31.87940       71.36989
H         57.59248       31.48555       69.66728
H         56.64621       34.15970       70.74417
Ca        55.62441       36.93482       69.79587
O         55.47142       40.30004       70.54160
H         56.25636       40.49742       71.11216
H         55.29594       41.14660       70.05872
O         54.38996       35.34977       72.27369
H         54.06379       34.49264       71.90122
H         55.33664       35.17732       72.50237
O         53.37052       38.28304       72.11975
H         53.03972       39.02456       72.68590
H         52.76596       37.52705       72.32728
O         54.24658       38.38228       67.73442
H         54.03786       39.29785       67.42255
H         54.38257       37.85699       66.90624
O         52.61150       36.05723       69.85299
H         52.46508       35.54360       69.01956
H         51.71266       36.38621       70.10578
O         57.79586       38.79991       68.81999
H         58.46204       38.34196       68.24860
H         58.25231       38.91436       69.69125

Ca 1.0



