%chk=apoCaM-CA-Ng.loop4.water5.frame867.chk
%nprocshared=20
%mem=10GB
%nosave
#b3lyp/svp scf=(tight,noincore,xqc) Test 
#IOP(5/87=12) Density=Current Pop=(MK,readradii) iop(6/33=2) iop(6/42=6)

apoCaM-CA-Ng.loop4.water5.frame867 

   -3  1 
C         50.89504       58.97592       -2.79539
C         50.75846       60.29140       -3.50747
O         51.72602       61.03414       -3.56617
H         51.16727       59.14385       -1.73500
H         49.94770       58.39720       -2.82515
H         51.69012       58.37250       -3.28151
N         49.58308       60.63112       -4.10806
C         49.36101       61.86223       -4.86069
C         50.38028       61.97343       -5.98849
O         51.03522       62.99690       -6.13684
C         49.35748       63.08043       -3.90731
C         48.92214       64.37862       -4.53920
O         48.89407       65.49610       -3.78877
O         48.58274       64.43594       -5.71100
H         48.79993       59.96062       -4.06726
H         48.34712       61.78423       -5.31357
H         50.37417       63.21598       -3.48978
H         48.65691       62.87443       -3.06929
N         50.60714       60.89700       -6.78777
C         51.61351       60.89643       -7.84965
C         51.10279       61.69522       -9.05108
O         49.89555       61.88405       -9.12551
C         51.96620       59.42446       -8.25715
C         50.74701       58.66495       -8.86882
C         52.56453       58.67069       -7.05082
C         51.08008       57.26824       -9.39530
H         50.09017       60.03507       -6.56840
H         52.53182       61.36901       -7.43900
H         52.76042       59.46804       -9.02036
H         50.35404       59.24302       -9.73114
H         49.92597       58.55496       -8.13141
H         51.82237       58.54656       -6.23461
H         52.92862       57.66605       -7.34508
H         53.43946       59.22555       -6.65108
H         50.16934       56.82385       -9.85169
H         51.87224       57.32669      -10.17032
H         51.40323       56.59166       -8.57878
N         51.88001       62.14624      -10.08518
C         53.34078       62.17962      -10.17016
C         53.75558       63.56731      -10.66967
O         53.23125       63.98550      -11.69540
C         53.83207       61.13889      -11.20264
C         55.33971       61.03044      -11.27614
O         55.84519       60.24241      -12.05812
O         56.14136       61.76805      -10.48150
H         51.37008       62.54101      -10.89201
H         53.80721       61.93217       -9.19347
H         53.43341       61.39072      -12.20873
H         53.44925       60.13594      -10.94116
N         54.72401       64.31491      -10.06666
C         55.12525       65.59482      -10.64347
C         56.34333       66.17887       -9.97426
O         57.34229       66.39757      -10.64601
H         55.20725       63.94689       -9.23304
H         54.27975       66.31331      -10.57324
H         55.36987       65.44781      -11.71980
N         56.32895       66.46329       -8.64615
C         57.46810       67.03629       -7.93386
C         58.72933       66.20732       -8.10722
O         59.76253       66.77962       -8.42978
C         57.14336       67.27104       -6.43906
C         56.82280       66.03085       -5.64076
O         55.87579       65.32217       -5.93956
O         57.54868       65.72901       -4.54792
H         55.45921       66.26914       -8.13033
H         57.67398       68.04699       -8.35647
H         56.27496       67.96071       -6.37396
H         58.01335       67.78284       -5.96948
N         58.71976       64.85211       -7.95836
C         59.92232       64.05220       -8.11979
C         60.88046       64.18834       -6.95148
O         61.95961       63.62184       -7.03335
H         57.82905       64.36750       -7.77501
H         60.42082       64.33125       -9.07540
H         59.64906       62.97734       -8.18815
N         60.53881       64.86482       -5.81042
C         61.38941       64.99964       -4.62997
C         61.71464       63.67503       -3.94918
O         62.48959       63.71248       -3.00072
C         62.66596       65.82012       -4.95809
C         62.35391       67.29329       -5.29983
C         61.85115       68.10828       -4.11989
N         61.53738       69.41307       -4.28506
O         61.74404       67.60843       -3.00897
H         59.61888       65.31035       -5.75108
H         60.82488       65.55987       -3.85838
H         63.20948       65.34882       -5.80204
H         63.36302       65.82807       -4.09190
H         61.61604       67.33404       -6.12954
H         63.29169       67.77655       -5.64819
H         61.62709       69.86441       -5.20629
H         61.20499       69.97434       -3.48597
N         61.13450       62.48632       -4.29962
C         61.44814       61.22957       -3.62075
C         60.25630       60.62729       -2.88015
O         60.46883       59.62616       -2.21370
C         62.03465       60.18616       -4.62244
C         61.03784       59.78196       -5.72591
C         63.33598       60.69104       -5.25794
H         60.44014       62.46465       -5.05905
H         62.21972       61.40170       -2.83846
H         62.28897       59.26585       -4.05058
H         60.77017       60.64250       -6.37306
H         61.48279       58.99413       -6.37058
H         60.11142       59.36378       -5.28429
H         63.15558       61.59850       -5.86884
H         64.08015       60.92965       -4.46954
H         63.76820       59.90579       -5.91524
N         58.97935       61.11716       -2.98681
C         57.83718       60.37608       -2.45236
C         56.78350       61.29046       -1.84245
O         56.43337       62.28396       -2.45800
C         57.21465       59.57370       -3.61414
C         56.28586       58.48028       -3.13263
N         56.57653       57.18010       -3.38004
O         55.27182       58.76146       -2.51465
H         58.78933       61.91505       -3.60647
H         58.17279       59.62119       -1.70737
H         58.04117       59.08268       -4.16765
H         56.69379       60.24979       -4.32671
H         57.42628       56.91516       -3.90002
H         55.95300       56.43003       -3.04762
N         56.13832       60.91330       -0.69655
C         54.92475       61.55872       -0.17381
C         54.48649       60.81845        1.07604
O         54.34551       59.60480        1.01719
C         53.79868       61.52388       -1.24276
C         52.47155       62.10034       -0.80107
C         51.59509       61.34047       -0.01106
C         52.06625       63.37443       -1.23315
C         50.33760       61.83726        0.33790
C         50.81184       63.87758       -0.87317
C         49.94039       63.10914       -0.09510
O         48.72315       63.59635        0.21830
H         56.47997       60.06224       -0.22496
H         55.13323       62.62178        0.07570
H         53.62360       60.49061       -1.60866
H         54.13101       62.10718       -2.12139
H         51.87320       60.34913        0.30606
H         52.71704       63.97716       -1.85412
H         49.66937       61.22756        0.93260
H         50.51000       64.85884       -1.21659
H         48.08247       63.08597        0.73397
N         54.24305       61.48807        2.24079
C         53.91861       60.80084        3.48343
C         52.49175       61.12641        3.90478
O         52.26034       62.25105        4.32589
C         54.94793       61.23240        4.54970
C         54.79538       60.51143        5.89332
C         55.83505       61.00131        6.86312
O         55.85639       62.17437        7.20284
O         56.75079       60.14910        7.36111
H         54.30099       62.51759        2.25067
H         54.03064       59.71607        3.34094
H         54.86275       62.33171        4.70842
H         55.96775       61.02429        4.15656
H         54.92042       59.41869        5.73509
H         53.78951       60.69710        6.32633
N         51.44752       60.24536        3.79770
C         51.50121       58.93120        3.15658
C         52.37996       57.93053        3.87766
O         52.30276       57.81251        5.09299
C         50.08999       58.34096        2.93137
C         49.33824       57.92433        4.20535
C         47.99401       57.36164        3.85024
O         47.91189       56.38203        3.12609
O         46.87329       57.93069        4.33200
H         50.52258       60.58730        4.10354
H         51.89400       59.07414        2.13126
H         50.19870       57.44141        2.28374
H         49.48156       59.08480        2.37025
H         49.20857       58.79586        4.87984
H         49.90213       57.13507        4.74454
N         53.21349       57.13092        3.15666
C         54.04336       56.12065        3.77055
H         54.76824       56.59626        4.46273
H         53.40976       55.39656        4.32620
H         54.60297       55.56783        2.98559
H         53.24038       57.21990        2.12915
Ca        45.14498       55.42032        3.28499
O         42.29200       55.65700        2.55600
H         42.32539       55.91782        1.60134
H         41.49500       55.07495        2.62996
O         43.50072       53.72122        5.22715
H         44.20044       53.27883        5.76993
H         42.89197       54.12911        5.89267
O         43.90121       58.51188        3.20495
H         44.05956       58.89966        4.10209
H         42.91712       58.42132        3.14487
O         47.13971       54.15725        5.43079
H         47.85275       54.19631        4.74525
H         46.70944       53.27734        5.28705
O         43.96627       56.91751        6.12275
H         44.24927       56.43912        6.94210
H         42.99076       56.75722        6.06497

Ca 1.0



