%chk=apoCaM-CA-Ng.loop4.water4.frame126.chk
%nprocshared=20
%mem=10GB
%nosave
#b3lyp/svp scf=(tight,noincore,xqc) Test 
#IOP(5/87=12) Density=Current Pop=(MK,readradii) iop(6/33=2) iop(6/42=6)

apoCaM-CA-Ng.loop4.water4.frame126 

   -3  1 
C         49.04302       64.23723       16.94759
C         49.54151       65.40662       17.74023
O         50.72970       65.67674       17.69676
H         48.28139       64.58310       16.21782
H         49.87704       63.76001       16.38734
H         48.59187       63.48676       17.62809
N         48.67381       66.15602       18.48154
C         49.03160       67.34843       19.24802
C         50.06999       68.22329       18.56495
O         51.21858       68.21224       18.96869
C         49.25219       67.06968       20.75536
C         50.41229       66.19501       21.14837
O         51.16101       65.70655       20.32130
O         50.62554       65.94795       22.45473
H         47.67883       65.88414       18.47796
H         48.12069       67.98884       19.27826
H         48.32927       66.59719       21.15672
H         49.38046       68.04869       21.26893
N         49.69340       68.99835       17.50469
C         50.51277       69.93900       16.73446
C         50.92268       71.16588       17.55089
O         50.45979       72.24664       17.21023
C         51.70086       69.27144       15.98250
C         52.45153       70.27543       15.05637
C         51.22643       68.05991       15.15903
C         51.60469       70.91207       13.94116
H         48.70820       68.92385       17.20622
H         49.83183       70.31968       15.94189
H         52.43578       68.89764       16.72739
H         53.29667       69.74156       14.57493
H         52.88313       71.09600       15.66702
H         50.77858       67.29292       15.81464
H         50.45810       68.34746       14.41285
H         52.08464       67.59295       14.63138
H         51.18019       70.14568       13.26188
H         50.78179       71.52956       14.35431
H         52.24349       71.58296       13.32966
N         51.76886       71.10907       18.62368
C         52.14003       72.29715       19.37854
C         53.00078       73.21841       18.52448
O         52.56037       74.33900       18.30866
C         52.77563       71.95323       20.74606
C         51.78800       71.26127       21.65063
O         52.06389       70.04575       22.15500
O         50.74051       71.81065       21.95390
H         52.16827       70.21901       18.92623
H         51.20829       72.85269       19.63782
H         53.07981       72.89646       21.25007
H         53.66547       71.30945       20.64167
N         54.20019       72.87986       17.95827
C         54.89259       71.59874       18.10473
C         56.18400       71.53878       17.29519
O         56.44889       72.47680       16.55594
H         54.63565       73.61636       17.38350
H         54.23312       70.77975       17.76454
H         55.15897       71.48709       19.16062
N         57.08568       70.50870       17.33673
C         57.08540       69.26848       18.11956
C         55.96536       68.27477       17.71622
O         54.78700       68.51595       18.43005
C         57.19268       69.49225       19.64115
C         58.34378       70.39954       19.97957
O         58.11946       71.55922       20.62599
O         59.48419       70.09342       19.66822
H         57.91425       70.62097       16.72914
H         58.03338       68.74628       17.86804
H         57.35016       68.51243       20.14285
H         56.26108       69.91476       20.05385
N         55.67217       68.27641       16.26951
C         56.80860       68.02507       15.36278
C         56.80124       69.05971       14.26384
O         55.83208       69.79584       14.13872
H         54.89498       67.61353       16.04739
H         56.77617       66.99712       14.93734
H         57.77805       68.11041       15.88138
N         57.89584       69.23549       13.47060
C         57.95341       70.31018       12.47880
C         57.07700       70.04729       11.26304
O         56.92066       70.95903       10.46195
C         59.40460       70.62292       12.05046
C         60.11749       69.46963       11.32034
C         61.53602       69.84641       10.96989
N         61.99464       69.72843        9.70244
O         62.29003       70.24019       11.84739
H         58.72823       68.65929       13.66107
H         57.58467       71.23474       12.97980
H         59.97817       70.88270       12.96800
H         59.39718       71.52134       11.39363
H         59.55693       69.19433       10.40100
H         60.16173       68.58132       11.97859
H         61.39289       69.36326        8.95355
H         62.96989       69.97157        9.47398
N         56.49452       68.83310       11.04132
C         55.65644       68.54124        9.88257
C         56.26257       67.45518        8.99544
O         55.62417       67.11392        8.01013
C         54.21078       68.17606       10.32925
C         53.53070       69.37147       11.01359
C         54.15710       66.94605       11.24658
H         56.65950       68.06817       11.71009
H         55.56512       69.43556        9.22638
H         53.61541       67.94719        9.41720
H         54.06273       69.65771       11.94474
H         53.51458       70.24601       10.32814
H         52.47929       69.11913       11.26834
H         54.68113       67.14041       12.20378
H         53.10021       66.69700       11.48093
H         54.61890       66.06615       10.75225
N         57.49638       66.90640        9.23286
C         58.10547       65.91892        8.33919
C         58.50689       64.62590        9.04637
O         58.92387       63.71202        8.34517
C         59.37333       66.53076        7.70052
C         59.09220       67.79809        6.93063
N         58.29777       67.78818        5.83657
O         59.60293       68.84693        7.29105
H         58.05741       67.24003       10.02768
H         57.39570       65.63947        7.53118
H         59.84744       65.80232        7.00688
H         60.10325       66.75302        8.51190
H         57.86677       66.91458        5.50362
H         58.12361       68.65965        5.31362
N         58.50617       64.48918       10.40679
C         59.08851       63.33215       11.08672
C         58.17726       62.81902       12.18546
O         57.85246       63.60996       13.05812
C         60.41027       63.76483       11.75628
C         61.40991       64.34757       10.78699
C         61.95054       63.57115        9.74790
C         61.82351       65.68270       10.93157
C         62.89149       64.12381        8.87181
C         62.76251       66.23078       10.05680
C         63.30172       65.45304        9.02405
O         64.21491       65.97087        8.17822
H         58.20645       65.27699       10.99804
H         59.32320       62.51397       10.37075
H         60.87574       62.89245       12.26519
H         60.17871       64.52318       12.53721
H         61.65117       62.53863        9.61967
H         61.42183       66.30169       11.72398
H         63.30686       63.51681        8.07726
H         63.07328       67.25830       10.18634
H         64.52844       66.88342        8.25778
N         57.83866       61.49245       12.27162
C         57.13135       60.85527       13.39348
C         55.62466       61.07130       13.42356
O         54.91062       60.09312       13.60196
C         57.71525       61.22212       14.78032
C         59.19580       60.85517       14.92978
C         59.68092       61.19577       16.31101
O         59.66641       62.35285       16.70109
O         60.13246       60.22466       17.12754
H         58.21540       60.85785       11.55066
H         57.27186       59.75360       13.29317
H         57.14805       60.65808       15.55537
H         57.56571       62.29833       15.00145
H         59.81158       61.40372       14.18677
H         59.31839       59.76359       14.75789
N         55.06805       62.31148       13.35734
C         53.66459       62.57880       13.65537
C         52.70697       61.85029       12.72676
O         51.52760       61.78747       13.04790
C         53.34704       64.09278       13.57585
C         54.28105       65.01683       14.37303
C         54.25031       64.80523       15.84786
O         53.14337       65.12789       16.53296
O         55.28287       64.55619       16.45023
H         55.67407       63.09759       13.15206
H         53.48842       62.22314       14.69585
H         52.29871       64.26986       13.90321
H         53.43117       64.40285       12.51215
H         53.97214       66.06614       14.19234
H         55.32693       64.95358       14.01671
N         53.11821       61.31036       11.54499
C         52.20457       60.62085       10.66258
H         51.37375       61.29787       10.37023
H         52.73918       60.29580        9.74523
H         51.79324       59.72506       11.17405
H         54.09784       61.40370       11.24094
Ca        53.67747       66.55171       18.17243
O         53.70900       68.03977       20.97877
H         54.56703       68.19469       21.44746
H         53.09553       67.70842       21.68100
O         52.82648       63.12534       18.82916
H         52.35322       62.31434       19.14240
H         53.24295       62.85117       17.97389
O         56.12561       65.29541       19.47078
H         56.67487       65.25299       20.29318
H         55.75047       64.38400       19.37382
O         53.82382       64.99716       21.60600
H         54.18849       65.54096       22.34869
H         53.17299       64.39031       22.03963

Ca 1.0



