%chk=apoCaM-CA-Ng.loop2.water3.frame905.chk
%nprocshared=20
%mem=10GB
%nosave
#b3lyp/svp scf=(tight,noincore,xqc) Test 
#IOP(5/87=12) Density=Current Pop=(MK,readradii) iop(6/33=2) iop(6/42=6)

apoCaM-CA-Ng.loop2.water3.frame905 

   -2  1 
C         96.86464        1.42743       46.58348
C         96.30007        2.23748       47.71288
O         96.95359        3.17375       48.15127
H         97.82809        0.97261       46.89237
H         96.16885        0.61831       46.27661
H         97.03672        2.08996       45.70873
N         95.07192        1.94594       48.23003
C         94.46027        2.72035       49.30724
C         94.11851        4.15184       48.87518
O         93.67031        4.91405       49.72065
C         93.19225        1.98668       49.80750
C         92.58964        2.61947       51.03271
O         91.44149        3.03329       51.00987
O         93.31186        2.72221       52.16516
H         94.56504        1.12864       47.85522
H         95.18549        2.75630       50.15119
H         93.46216        0.94288       50.07873
H         92.44059        1.94826       48.98774
N         94.30001        4.59362       47.59194
C         93.96531        5.93815       47.14675
C         93.00370        5.83391       45.97045
O         93.39252        5.25168       44.96676
C         95.23870        6.67543       46.72931
H         94.68026        3.96215       46.87578
H         93.53332        6.51340       47.98293
H         95.75669        6.13972       45.90538
H         94.99142        7.70510       46.39332
H         95.93062        6.74435       47.59598
N         91.72336        6.30711       45.98755
C         91.10680        7.00238       47.11522
C         89.58455        6.93096       47.07382
O         89.01525        6.44106       46.10987
C         91.62677        8.46275       47.21500
C         91.43121        9.29751       45.97394
O         91.87221       10.56919       45.96587
O         90.91119        8.83999       44.96950
H         91.15163        6.10968       45.15128
H         91.35118        6.44289       48.04303
H         92.71466        8.46288       47.41687
H         91.13521        8.97577       48.06747
N         88.87018        7.31811       48.16952
C         87.43160        7.15386       48.30669
C         86.78680        8.42965       48.79679
O         86.34489        8.44180       49.93669
H         89.38317        7.66580       48.99402
H         87.27475        6.37585       49.08522
H         86.94176        6.78379       47.38472
N         86.68534        9.56357       48.04912
C         87.06655        9.67862       46.64951
C         85.94140        9.10924       45.79352
O         84.84449        9.65013       45.79974
C         87.40968       11.15803       46.37630
C         87.87069       11.48186       44.98553
N         87.30949       12.51608       44.31801
O         88.79391       10.85959       44.48305
H         86.25785       10.38802       48.50205
H         88.00512        9.11444       46.47566
H         88.24556       11.42612       47.05941
H         86.54287       11.80279       46.63888
H         86.55405       13.07543       44.73819
H         87.65244       12.79415       43.39372
N         86.13428        7.95173       45.09961
C         85.09856        7.24520       44.36328
C         84.67682        7.99856       43.13590
O         83.49276        8.22284       42.94917
H         87.05611        7.50172       45.13867
H         84.23478        7.02101       45.02776
H         85.51572        6.27453       44.01601
N         85.62181        8.36609       42.23042
C         85.38044        9.09204       40.98499
C         86.67735        9.14850       40.20523
O         87.63927        9.70633       40.70799
C         84.93866       10.57324       41.18982
C         83.48887       10.80188       41.60762
O         85.79683       11.20215       42.10604
H         86.59010        8.07475       42.43833
H         84.62758        8.55199       40.36990
H         85.02370       11.05763       40.18530
H         85.82607       12.16344       41.86564
H         83.29398       10.48997       42.64662
H         83.27517       11.89101       41.56737
H         82.80506       10.28834       40.89845
N         86.77911        8.61565       38.95924
C         87.97894        8.80064       38.15392
C         88.03069       10.26683       37.75022
O         87.10259       10.74962       37.11590
C         88.01323        7.80094       36.96391
C         89.25518        8.05414       36.06674
C         88.03763        6.36503       37.54074
C         89.38229        7.07776       34.89404
H         85.97109        8.11534       38.55860
H         88.87074        8.55141       38.77040
H         87.09688        7.92918       36.34637
H         90.18324        7.99295       36.67249
H         89.18769        9.07812       35.64026
H         87.16477        6.17726       38.19861
H         87.99049        5.59975       36.74293
H         88.96078        6.20510       38.14117
H         88.46589        7.10036       34.26778
H         90.25397        7.36193       34.26814
H         89.56242        6.04250       35.24975
N         89.08704       11.03684       38.12896
C         89.19610       12.46847       37.90429
C         90.27438       12.78602       36.88971
O         90.37819       13.94990       36.52648
C         89.53302       13.16051       39.24121
C         88.44503       13.00731       40.26197
O         87.38533       13.59445       40.11388
O         88.62408       12.22460       41.34460
H         89.86690       10.58822       38.61406
H         88.24544       12.87181       37.48941
H         89.71728       14.24848       39.10386
H         90.47160       12.71197       39.63528
N         91.11354       11.83126       36.37747
C         92.06390       12.14020       35.31861
C         93.08470       11.01134       35.15384
O         92.67091        9.88944       34.89768
C         91.27871       12.39850       34.00436
C         92.14148       12.84019       32.84463
C         93.01471       11.94279       32.20339
C         92.05752       14.16295       32.37318
C         93.79374       12.36381       31.12335
C         92.84202       14.58078       31.29506
C         93.71002       13.68219       30.67100
H         91.08125       10.86760       36.73665
H         92.58072       13.07425       35.60476
H         90.53665       13.19892       34.20331
H         90.69381       11.50023       33.70828
H         93.08750       10.91316       32.52200
H         91.38964       14.87500       32.84257
H         94.45931       11.66459       30.63445
H         92.77472       15.60172       30.94261
H         94.31399       14.00599       29.83394
N         94.44037       11.23558       35.23280
C         95.46834       10.23966       34.93339
C         95.49516        8.95139       35.74070
O         96.33367        8.11768       35.42277
C         96.77973       10.99059       35.19919
C         96.42488       12.39291       34.78674
C         95.03877       12.55010       35.39726
H         95.35705        9.98475       33.85562
H         96.96895       11.02358       36.29883
H         97.67132       10.55823       34.69746
H         97.14983       13.18066       35.08189
H         96.32504       12.39349       33.67630
H         95.07440       12.79294       36.48210
H         94.53956       13.35479       34.81648
N         94.67302        8.70392       36.80136
C         94.78276        7.46449       37.57845
C         94.42647        6.21368       36.77985
O         94.60902        5.12484       37.30738
C         93.96229        7.54890       38.87990
C         92.45004        7.58594       38.65517
C         91.77300        7.99902       39.92206
O         91.14140        9.17773       39.90362
O         91.82055        7.32316       40.93734
H         94.01697        9.43713       37.10439
H         95.84530        7.37622       37.89748
H         94.28219        8.47915       39.40189
H         94.19653        6.68978       39.54670
H         92.06130        6.61216       38.28620
H         92.21350        8.35622       37.89138
N         93.92582        6.27448       35.51152
C         93.64057        5.08330       34.74304
H         93.25871        5.36419       33.73822
H         94.57073        4.48946       34.61184
H         92.87439        4.46887       35.26002
H         93.74137        7.18002       35.05953
Ca        90.14660       10.55889       41.35468
O         91.32166       12.25628       43.52957
H         91.21005       13.23509       43.62425
H         92.29567       12.10451       43.62114
O         89.19234        7.44337       42.66564
H         89.28733        6.45987       42.72556
H         88.98673        7.72800       43.59070
O         93.18357        9.55017       42.43184
H         93.43220        9.18984       43.31978
H         94.04536        9.79595       42.01090

Ca 1.0



