%chk=apoCaM-CA-Ng.loop3.water4.frame122.chk
%nprocshared=20
%mem=10GB
%nosave
#b3lyp/svp scf=(tight,noincore,xqc) Test 
#IOP(5/87=12) Density=Current Pop=(MK,readradii) iop(6/33=2) iop(6/42=6)

apoCaM-CA-Ng.loop3.water4.frame122 

   0  1 
C         45.48434       80.13299      106.17162
C         44.62266       81.10256      106.95212
O         43.55441       81.46113      106.47994
H         46.45701       79.95276      106.67894
H         44.96812       79.15597      106.06520
H         45.70832       80.52833      105.15684
N         45.05215       81.57745      108.15966
C         44.35172       82.53542      109.02400
C         44.08812       83.88121      108.35591
O         43.23989       84.61837      108.83788
C         43.05956       81.97062      109.65497
C         43.25378       80.69023      110.41638
O         43.99367       80.66913      111.54251
O         42.68449       79.67463      110.05116
H         45.96495       81.24320      108.50104
H         45.03201       82.76082      109.87339
H         42.29954       81.82378      108.86313
H         42.66871       82.71350      110.38697
N         44.86721       84.31573      107.32682
C         44.80562       85.65463      106.74657
C         43.73724       85.67004      105.67166
O         44.03028       85.67057      104.48270
C         46.21866       86.00042      106.24907
C         46.33326       87.46892      105.87480
C         47.74796       87.83770      105.40847
C         47.90942       89.36405      105.36338
N         47.07855       89.98051      104.32621
H         45.62808       83.69887      107.01014
H         44.55174       86.40549      107.53066
H         46.50904       85.33249      105.41050
H         46.91778       85.82594      107.09974
H         46.09471       88.05479      106.79084
H         45.59543       87.70834      105.08636
H         47.97109       87.37877      104.41871
H         48.48807       87.44693      106.14171
H         48.97452       89.61907      105.17441
H         47.64303       89.77553      106.36392
H         47.10654       91.01869      104.43713
H         47.45273       89.72358      103.38485
H         46.08027       89.68674      104.39456
N         42.44467       85.59790      106.06995
C         41.33654       85.20870      105.23046
C         40.36736       86.36997      105.09315
O         39.95413       86.92993      106.09938
C         40.72855       83.97713      105.92430
C         39.70013       83.29505      105.09867
O         38.59671       83.94753      104.72722
O         39.85235       82.13237      104.76699
H         42.23210       85.72081      107.06670
H         41.69527       84.89554      104.22371
H         40.30633       84.27429      106.91019
H         41.54073       83.24007      106.11659
N         40.01053       86.82034      103.85508
C         39.21896       88.02324      103.62805
C         37.76814       87.97824      104.09547
O         37.12195       89.01318      104.02157
H         40.39272       86.33912      103.02743
H         39.22752       88.25732      102.54229
H         39.72786       88.86010      104.15494
N         37.17673       86.84198      104.56082
C         35.84384       86.79323      105.16834
C         35.83054       86.05289      106.51089
O         34.76818       85.95121      107.10917
C         34.77522       86.24890      104.19728
C         34.88614       84.84463      103.68371
N         33.88270       84.38083      102.90143
O         35.83591       84.13016      103.96190
H         37.70323       85.97827      104.48374
H         35.50359       87.82788      105.38788
H         34.73227       86.91552      103.31111
H         33.79469       86.31022      104.71807
H         33.07292       84.97848      102.68425
H         33.87536       83.43077      102.52500
N         36.96658       85.55425      107.07486
C         37.00898       84.88061      108.35796
C         36.44258       83.50089      108.25856
O         35.62729       83.09843      109.07699
H         37.87081       85.66624      106.60681
H         36.54113       85.49205      109.15605
H         38.07931       84.73241      108.62286
N         36.93696       82.69297      107.28925
C         36.64618       81.29666      107.14632
C         36.12222       81.05100      105.68396
O         37.23158       80.98215      104.80011
C         37.95354       80.53607      107.52463
C         38.41834       80.89086      108.93813
C         39.30897       81.96166      109.18225
C         37.94723       80.15287      110.03401
C         39.71856       82.26881      110.48946
C         38.36839       80.45263      111.33518
C         39.26253       81.50529      111.56736
O         39.69225       81.78370      112.81647
H         37.63064       83.07545      106.64944
H         35.86515       80.99562      107.88176
H         38.76905       80.80639      106.81794
H         37.83546       79.43467      107.43885
H         39.68569       82.56415      108.36853
H         37.25751       79.33622      109.87890
H         40.39735       83.09484      110.66900
H         37.99966       79.86350      112.16433
H         39.43985       81.24322      113.57999
N         35.38603       79.77738      105.65225
C         34.59105       79.45977      104.44863
C         33.42688       80.40634      104.16942
O         33.26216       80.73631      103.02318
C         34.10372       78.00059      104.56127
C         35.27578       77.04626      104.90414
C         33.35051       77.52255      103.30115
C         36.44901       77.09624      103.92040
H         34.84837       79.56693      106.52473
H         35.26758       79.51547      103.56217
H         33.38298       77.93862      105.40444
H         34.86882       76.01751      104.96273
H         35.68293       77.28667      105.91161
H         33.06345       76.45656      103.41604
H         32.40994       78.08404      103.17394
H         33.94495       77.64345      102.37187
H         36.99758       78.05881      104.01442
H         37.16039       76.28142      104.16389
H         36.10662       76.97521      102.87414
N         32.54106       80.86998      105.08581
C         31.60368       81.95479      104.72405
C         30.63653       81.66143      103.54559
O         30.03344       82.59122      103.02721
C         30.86562       82.44386      105.96458
O         29.92220       81.49107      106.36888
H         32.62913       80.55293      106.06084
H         32.24944       82.79537      104.38494
H         30.37653       83.41350      105.72108
H         31.60332       82.60944      106.78248
H         29.20174       81.99473      106.82893
N         30.50458       80.40009      103.04784
C         29.77899       79.95992      101.85304
C         30.27838       80.61582      100.55770
O         29.46665       80.95411       99.70573
C         28.25477       80.06230      102.01534
H         30.98752       79.65502      103.55604
H         30.00196       78.87302      101.77170
H         27.89742       81.10603      101.88939
H         27.76312       79.42403      101.24637
H         27.94416       79.68822      103.01280
N         31.61225       80.80139      100.33001
C         32.14990       81.44142       99.13260
C         33.55135       80.92727       98.78757
O         34.14708       80.19926       99.56951
C         32.10781       82.96624       99.30281
H         32.26616       80.50855      101.04974
H         31.51060       81.14712       98.27307
H         32.76926       83.28343      100.13799
H         32.42274       83.48709       98.37479
H         31.07148       83.28929       99.54387
N         34.08786       81.19756       97.55694
C         35.31521       80.59578       97.01616
C         35.16248       79.07918       96.85727
O         36.16606       78.40018       96.67959
C         36.58883       80.89868       97.85867
C         36.84164       82.37522       98.17985
C         38.02171       82.53109       99.13313
O         37.85895       82.39440      100.47806
O         39.08697       82.94594       98.70862
H         33.54474       81.79713       96.91869
H         35.48383       81.01421       95.99837
H         37.47181       80.53438       97.27789
H         36.54519       80.32785       98.80446
H         35.94661       82.83205       98.64636
H         37.02829       82.92159       97.22677
N         33.94153       78.47311       96.94354
C         33.76830       77.03746       96.95417
H         32.82098       76.77141       96.44045
H         34.60990       76.50431       96.46467
H         33.68847       76.70764       98.01171
H         33.08938       79.03440       97.07024
Ca        37.69916       82.19483      102.81978
O         35.52056       82.12240      101.64627
H         35.57970       81.95939      100.68804
H         34.90657       81.42948      101.91040
O         40.22689       83.55379      101.87906
H         41.05345       83.12668      101.54244
H         39.93098       84.14055      101.13909
O         38.51449       79.80233      102.12638
H         39.27334       79.27806      102.47975
H         38.61524       79.78932      101.14233
O         37.38150       85.00844      101.35051
H         36.89955       84.56523      100.61036
H         37.45785       85.94450      101.04567

Ca 1.0



