%chk=apoCaM-CA-Ng.loop3.water1.frame961.chk
%nprocshared=20
%mem=10GB
%nosave
#b3lyp/svp scf=(tight,noincore,xqc) Test 
#IOP(5/87=12) Density=Current Pop=(MK,readradii) iop(6/33=2) iop(6/42=6)

apoCaM-CA-Ng.loop3.water1.frame961 

   0  1 
C         74.59676      112.01209       41.06445
C         74.77527      113.32665       41.76659
O         73.88291      113.72894       42.49651
H         75.48320      111.75732       40.44597
H         74.47109      111.21158       41.82621
H         73.69869      112.04241       40.41613
N         75.93885      114.02188       41.64170
C         76.24883      115.19171       42.45253
C         75.48554      116.43617       42.00966
O         75.59652      116.84126       40.86123
C         77.77430      115.41924       42.46473
C         78.23810      116.33225       43.56971
O         79.55525      116.54089       43.74342
O         77.44444      116.85289       44.33620
H         76.68258      113.61976       41.04990
H         75.98879      114.94121       43.49710
H         78.11498      115.78152       41.47277
H         78.27129      114.44660       42.66278
N         74.71885      117.11219       42.91150
C         73.98723      118.34981       42.63513
C         74.94144      119.45982       42.23496
O         74.70901      120.09861       41.21816
C         73.19081      118.79493       43.89077
C         72.09767      117.76974       44.25129
C         71.33289      118.05808       45.55302
C         72.25637      118.13015       46.78316
N         71.49328      118.00202       48.02441
H         74.68429      116.73837       43.86900
H         73.25039      118.18747       41.81582
H         72.69729      119.77501       43.70527
H         73.90460      118.91779       44.73282
H         72.54552      116.76496       44.36714
H         71.36673      117.71106       43.41501
H         70.62735      117.20726       45.68035
H         70.73463      118.99210       45.48120
H         72.82004      119.08772       46.77908
H         73.00260      117.31611       46.74820
H         70.78451      118.76588       48.10076
H         71.01414      117.07123       48.04845
H         72.14961      118.05172       48.83702
N         76.04408      119.73396       42.99070
C         76.97168      120.82472       42.70663
C         78.31777      120.33680       42.17420
O         79.17953      121.17093       41.93192
C         77.07405      121.78532       43.92302
C         77.58094      121.24861       45.27190
O         76.74604      120.26968       45.82157
O         78.86930      120.72087       45.18685
H         76.24218      119.12302       43.79341
H         76.57359      121.45486       41.88093
H         76.06368      122.20785       44.11003
H         77.73207      122.63519       43.64146
N         78.53918      119.02568       41.85798
C         79.74249      118.55599       41.17968
C         81.03046      118.66717       41.97358
O         82.06889      118.37695       41.39633
H         77.78636      118.34236       41.99743
H         79.85478      119.13794       40.23839
H         79.61663      117.49108       40.89344
N         81.06342      119.09244       43.26962
C         82.29987      119.34820       43.99880
C         82.35031      118.57454       45.31258
O         81.44598      118.70049       46.12631
C         82.39064      120.86573       44.26309
C         83.69701      121.31897       44.87850
N         83.88673      122.62886       45.15348
O         84.59015      120.52054       45.12136
H         80.18174      119.30993       43.74532
H         83.18213      119.08277       43.37506
H         81.55085      121.17766       44.92016
H         82.28476      121.39733       43.29152
H         83.14856      123.31933       44.95338
H         84.77324      122.95316       45.56744
N         83.44960      117.82843       45.61587
C         83.68483      117.19985       46.90631
C         82.78996      116.01358       47.17310
O         82.75162      115.10340       46.35769
H         84.21760      117.78056       44.92943
H         83.61491      117.96202       47.71486
H         84.72654      116.81419       46.91431
N         82.10935      115.91743       48.35173
C         81.31251      114.74704       48.73075
C         80.08946      114.59519       47.83680
O         79.86674      115.42532       46.96717
C         80.87378      114.86840       50.21091
C         82.05194      114.85822       51.16063
C         82.47130      116.04613       51.77999
C         82.73049      113.65928       51.45093
C         83.55423      116.04150       52.66336
C         83.80317      113.65369       52.35169
C         84.22105      114.84395       52.95699
O         85.25945      114.82608       53.81751
H         82.21143      116.68809       49.02969
H         81.93861      113.83253       48.62489
H         80.19598      114.04412       50.52006
H         80.29709      115.81290       50.31411
H         81.96800      116.98028       51.56786
H         82.41841      112.72631       50.99731
H         83.87122      116.96966       53.12123
H         84.30972      112.72388       52.58204
H         85.57858      115.62855       54.25535
N         79.26308      113.51839       48.00220
C         78.08080      113.21162       47.19877
C         76.99240      114.26801       47.36541
O         77.22639      115.42716       47.05507
C         78.44044      112.98336       45.69681
C         77.21371      112.53913       44.85146
C         79.59307      111.97556       45.53869
C         76.55168      111.22264       45.27025
H         79.50427      112.83260       48.73333
H         77.68571      112.24744       47.58118
H         78.79534      113.94183       45.26115
H         77.52687      112.44109       43.78951
H         76.43961      113.32418       44.90228
H         79.83669      111.83946       44.46303
H         80.51048      112.34840       46.04001
H         79.33393      110.99166       45.97956
H         77.26329      110.37546       45.21186
H         76.13610      111.28687       46.29463
H         75.70548      111.00941       44.58347
N         75.74039      113.90839       47.77994
C         74.62246      114.84341       47.84872
C         73.89184      114.72760       49.17700
O         72.67540      114.57533       49.17501
C         73.67377      114.53448       46.67783
O         74.33844      114.75615       45.47101
H         75.54371      112.91497       47.97162
H         74.97667      115.89307       47.74740
H         72.77131      115.17791       46.72817
H         73.34877      113.47189       46.73327
H         73.64507      114.69165       44.76755
N         74.56732      114.75212       50.36049
C         73.88534      114.59583       51.64406
C         74.36632      115.60678       52.67153
O         75.43118      116.17679       52.47325
C         74.13788      113.18318       52.15239
H         75.59872      114.79434       50.34163
H         72.79320      114.73464       51.50311
H         73.71235      112.44756       51.43492
H         75.22548      112.99245       52.26215
H         73.66533      113.04781       53.13550
N         73.65326      115.93836       53.79291
C         72.28568      115.51326       54.09947
C         72.09047      115.32250       55.59988
O         72.51752      116.19243       56.34636
C         71.34386      116.63371       53.65267
H         74.05214      116.68448       54.38489
H         71.98435      114.61462       53.53428
H         71.44921      116.80102       52.55981
H         70.28912      116.35674       53.86440
H         71.57918      117.58369       54.18024
N         71.36779      114.30243       56.15277
C         70.71528      113.22101       55.42285
C         71.74129      112.22625       54.93444
O         71.69490      111.84761       53.77276
C         69.67985      112.49053       56.31301
C         68.54231      113.38478       56.85967
C         67.69544      114.03704       55.79600
O         66.38775      113.73094       55.69749
O         68.16774      114.88197       55.05272
H         71.23189      114.33585       57.17593
H         70.14781      113.62003       54.55800
H         70.19714      112.02645       57.18115
H         69.21470      111.67204       55.71847
H         68.94767      114.17393       57.52598
H         67.88250      112.73591       57.47586
N         72.70559      111.76006       55.77669
C         73.72476      110.82654       55.34962
H         74.42482      110.62360       56.18791
H         73.25757      109.87243       55.02998
H         74.30963      111.25380       54.50881
H         72.73595      112.09869       56.75030
Ca        78.38909      118.74772       46.20416
O         76.58548      118.10052       48.69571
H         76.69100      117.25161       49.19443
H         75.65073      118.37691       48.86942

Ca 1.0



