%chk=apoCaM-CA-Ng.loop2.water4.frame1415.chk
%nprocshared=20
%mem=10GB
%nosave
#b3lyp/svp scf=(tight,noincore,xqc) Test 
#IOP(5/87=12) Density=Current Pop=(MK,readradii) iop(6/33=2) iop(6/42=6)

apoCaM-CA-Ng.loop2.water4.frame1415 

   -2  1 
C         76.33615       82.49767       -1.58112
C         75.57648       81.28767       -2.07714
O         76.21922       80.25660       -2.20980
H         77.15858       82.72679       -2.29019
H         75.75717       83.42314       -1.44471
H         76.78216       82.25652       -0.59295
N         74.23839       81.25878       -2.36590
C         73.30261       82.37584       -2.27877
C         72.63260       82.68431       -3.61459
O         71.73229       83.51336       -3.62808
C         72.30864       82.15568       -1.11791
C         71.37609       80.98038       -1.19037
O         71.35953       80.12344       -2.22463
O         70.59704       80.80217       -0.26899
H         73.84704       80.35139       -2.66336
H         73.80640       83.31486       -2.00704
H         71.68307       83.06895       -1.01443
H         72.90418       82.05158       -0.18411
N         73.08521       82.15927       -4.79519
C         72.55721       82.59981       -6.08551
C         71.14914       82.10786       -6.36713
O         70.55318       82.60374       -7.31397
C         73.47552       82.14995       -7.22816
H         73.89647       81.52375       -4.78866
H         72.55444       83.71310       -6.08494
H         74.50113       82.54399       -7.06613
H         73.51946       81.04058       -7.27898
H         73.10634       82.53959       -8.20162
N         70.57627       81.09870       -5.64927
C         69.24098       80.58021       -5.94088
C         68.34490       80.62859       -4.71532
O         68.83064       80.82440       -3.61009
C         69.33023       79.18848       -6.61347
C         70.10914       78.12402       -5.88094
O         70.64373       78.34065       -4.66901
O         70.29645       77.04733       -6.42230
H         71.12264       80.65570       -4.90013
H         68.74564       81.23863       -6.68717
H         69.84825       79.33518       -7.58628
H         68.30816       78.80752       -6.82778
N         66.99000       80.57503       -4.86887
C         66.05872       80.78682       -3.77328
C         65.82264       79.51620       -3.00391
O         66.76757       78.95968       -2.46339
H         66.60278       80.51968       -5.82314
H         65.09228       81.13602       -4.19550
H         66.42297       81.59866       -3.10609
N         64.56165       79.00044       -2.90350
C         64.28313       77.75406       -2.20372
C         64.96241       76.62233       -2.94141
O         64.68808       76.41530       -4.11613
C         62.77422       77.48337       -2.05630
C         62.11528       78.55883       -1.22305
N         61.78722       78.32466        0.06895
O         61.89943       79.65923       -1.70841
H         63.78139       79.51199       -3.34135
H         64.68508       77.83045       -1.16729
H         62.67301       76.51023       -1.52716
H         62.25655       77.38471       -3.03600
H         61.99519       77.41790        0.51178
H         61.35823       79.06683        0.64135
N         65.91515       75.88493       -2.31292
C         66.73983       74.90195       -2.98686
C         67.59060       75.58522       -4.04066
O         68.11476       76.65041       -3.75204
H         66.10627       76.06290       -1.31648
H         66.11365       74.07936       -3.38644
H         67.42904       74.46251       -2.23822
N         67.82454       75.05750       -5.27659
C         67.38353       73.73480       -5.70226
C         68.00334       72.62875       -4.84445
O         67.54965       71.49966       -4.95757
C         67.73388       73.47231       -7.19580
C         67.00617       74.42917       -8.15646
O         69.12816       73.50075       -7.40485
H         68.37998       75.62538       -5.92742
H         66.27756       73.69113       -5.59826
H         67.38347       72.45238       -7.46556
H         69.41638       74.44122       -7.53882
H         65.90752       74.32575       -8.03571
H         67.28692       75.48737       -7.97366
H         67.27019       74.17579       -9.20565
N         69.06196       72.86415       -4.00614
C         69.71807       71.83687       -3.20206
C         69.75808       72.29006       -1.73485
O         70.33108       73.34115       -1.48951
C         71.17000       71.62934       -3.73218
C         71.22434       71.26938       -5.24194
C         71.92541       70.58329       -2.89800
C         70.57136       69.93728       -5.62593
H         69.47819       73.80498       -3.96819
H         69.19771       70.86946       -3.30429
H         71.71778       72.59326       -3.62615
H         72.28903       71.23049       -5.55984
H         70.74308       72.07989       -5.82697
H         71.40937       69.60117       -2.92102
H         72.96219       70.46036       -3.27616
H         71.99086       70.91417       -1.84265
H         69.49541       69.92137       -5.37056
H         70.66217       69.79155       -6.72280
H         71.07608       69.08556       -5.12734
N         69.25879       71.56791       -0.68147
C         68.54910       70.29718       -0.80040
C         68.45601       69.52860        0.52194
O         68.80707       70.04393        1.57540
C         67.12551       70.54754       -1.36623
C         66.31232       71.46980       -0.48843
O         65.90508       72.53281       -0.92879
O         66.01653       71.12563        0.77976
H         69.43096       71.94956        0.26186
H         69.13890       69.63160       -1.46588
H         66.57824       69.58927       -1.48014
H         67.19142       71.00389       -2.37163
N         67.97782       68.25104        0.50580
C         67.75672       67.41546        1.68185
C         68.61803       66.15770        1.60995
O         68.68913       65.56548        0.53946
C         66.24805       67.07005        1.74022
C         65.89514       66.14324        2.88255
C         66.20380       64.77103        2.80851
C         65.26557       66.63840        4.03694
C         65.90861       63.91853        3.87332
C         64.97615       65.78081        5.10402
C         65.30007       64.42349        5.02319
H         67.72662       67.84263       -0.40851
H         67.99317       67.97346        2.61100
H         65.89099       66.61614        0.78990
H         65.71134       68.03729        1.86133
H         66.67448       64.35693        1.92667
H         65.01862       67.68910        4.12090
H         66.15713       62.86703        3.80666
H         64.50542       66.16950        5.99715
H         65.07891       63.76192        5.85031
N         69.23257       65.61890        2.71527
C         69.13150       66.13542        4.07633
C         70.03062       67.33151        4.31257
O         69.87843       67.97317        5.34279
C         69.52289       64.93093        4.93664
C         70.58121       64.26791        4.07741
C         69.96067       64.36618        2.68416
H         68.09244       66.41832        4.33339
H         69.81651       65.16570        5.98226
H         68.65701       64.23033        4.96846
H         71.48569       64.91637        4.10919
H         70.87282       63.23920        4.37743
H         70.76092       64.34687        1.91282
H         69.23082       63.54673        2.50027
N         70.98379       67.69199        3.41072
C         71.80883       68.88604        3.53898
C         72.61984       68.83432        4.83006
O         73.43273       67.93094        4.96816
C         72.77252       68.99124        2.33415
C         72.04165       69.12627        0.98543
C         73.02234       69.03263       -0.14525
O         72.91855       68.13997       -0.97242
O         74.02281       69.92682       -0.25342
H         71.12763       67.08578        2.59273
H         71.14082       69.77081        3.52384
H         73.40372       68.07398        2.31361
H         73.44014       69.87196        2.46219
H         71.50328       70.09646        0.94262
H         71.29345       68.31901        0.84795
N         72.47499       69.74317        5.83841
C         71.52516       70.83611        5.81973
H         70.48932       70.44404        5.74814
H         71.60333       71.41939        6.76198
H         71.73192       71.51601        4.96750
H         73.06701       69.64468        6.67806
Ca        69.81741       78.47543       -2.05847
O         68.07625       79.21183        0.43873
H         67.24531       79.58550        0.82515
H         68.76675       79.37641        1.12878
O         71.70790       76.20310       -2.65770
H         71.43009       75.70949       -1.84627
H         71.10589       75.86939       -3.36945
O         68.76673       76.16954       -0.46458
H         68.80968       75.18195       -0.44736
H         67.99223       76.39139        0.10975
O         71.22937       77.74263        0.41865
H         71.97145       77.09691        0.52693
H         71.08396       78.11469        1.32419

Ca 1.0



