%chk=apoCaM-CA-Ng.loop1.water3.frame178.chk
%nprocshared=20
%mem=10GB
%nosave
#b3lyp/svp scf=(tight,noincore,xqc) Test 
#IOP(5/87=12) Density=Current Pop=(MK,readradii) iop(6/33=2) iop(6/42=6)

apoCaM-CA-Ng.loop1.water3.frame178 

   0  1 
C         93.85755       48.38985       19.83888
C         93.90167       49.80981       20.32211
O         93.09289       50.61556       19.88448
H         93.05210       48.25256       19.08598
H         94.82917       48.12575       19.36941
H         93.67005       47.70851       20.69454
N         94.85556       50.18958       21.21705
C         95.00683       51.55670       21.70871
C         96.28722       52.20281       21.17686
O         96.57558       53.33011       21.55310
C         94.89676       51.60093       23.24967
C         96.00679       50.90830       23.98885
O         96.78828       51.61842       24.82455
O         96.17986       49.70533       23.87805
H         95.53449       49.47810       21.52647
H         94.17260       52.19046       21.33746
H         93.92681       51.15528       23.56077
H         94.88854       52.66732       23.56430
N         97.05074       51.58200       20.22752
C         98.20436       52.18056       19.56510
C         97.83159       52.46583       18.11470
O         97.17507       51.61693       17.52595
C         99.42511       51.23691       19.62381
C        100.15750       51.25097       20.97627
C         99.45506       50.50947       22.11711
C        100.29004       50.64429       23.40192
N         99.75067       49.82390       24.48348
H         96.76490       50.65722       19.87569
H         98.50441       53.11484       20.04337
H        100.17102       51.62438       18.90372
H         99.17509       50.20648       19.28942
H        100.35402       52.30740       21.26538
H        101.14205       50.75626       20.82498
H         99.36097       49.43860       21.83454
H         98.44563       50.92166       22.30733
H        100.30325       51.71365       23.71419
H        101.33857       50.32638       23.20870
H        100.31697       49.98520       25.34761
H         98.75946       50.07882       24.67871
H         99.80906       48.81281       24.22350
N         98.21291       53.58182       17.40888
C         99.11398       54.66986       17.80953
C        100.48626       54.13933       18.21885
O        100.88061       54.32636       19.36189
C         98.52778       55.63041       18.87154
C         97.21907       56.26613       18.52489
O         96.71026       57.00787       19.35048
O         96.55838       56.02877       17.37364
H         97.88605       53.62951       16.42980
H         99.28016       55.30723       16.91952
H         99.25888       56.45270       19.03564
H         98.38599       55.13975       19.84563
N        101.29949       53.46534       17.35538
C        100.96317       53.23893       15.96090
C        101.98241       52.36513       15.25650
O        102.49421       51.44648       15.88078
H        102.20056       53.11602       17.71799
H        100.85284       54.22385       15.46386
H        100.00549       52.68868       15.89302
N        102.24809       52.47466       13.92200
C        101.65495       53.48436       13.04998
C        102.36839       54.82355       13.20891
O        103.34147       54.91521       13.94534
C        101.57053       52.99749       11.57825
C        102.88592       52.74356       10.88809
O        103.18435       53.38899        9.89632
O        103.70611       51.75947       11.30142
H        102.86872       51.76332       13.51412
H        100.58886       53.61620       13.33744
H        101.00661       53.75456       10.99132
H        100.97044       52.06185       11.54368
N        101.91442       55.91877       12.54352
C        102.50170       57.24312       12.65662
C        102.28641       57.85479       14.02427
O        103.22354       58.37629       14.61087
H        101.10320       55.81923       11.91548
H        101.97092       57.90669       11.93904
H        103.57542       57.23090       12.36794
N        101.03396       57.87067       14.55535
C        100.64584       58.59930       15.76163
C        101.44018       58.18901       16.99797
O        101.51356       57.01257       17.31969
C         99.13055       58.42526       16.04818
C         98.24224       58.95962       14.91765
O         98.80495       59.11970       17.22339
H        100.30465       57.36574       14.03269
H        100.81142       59.68455       15.58066
H         98.92811       57.34311       16.18239
H         97.97055       58.72095       17.57873
H         98.41922       58.43946       13.95676
H         97.17808       58.79797       15.18531
H         98.41367       60.04740       14.77762
N        101.96307       59.16700       17.79442
C        102.60384       58.95132       19.09132
C        101.72445       59.45756       20.24183
O        102.15236       59.36002       21.38469
C        104.03372       59.58959       19.11411
C        104.13652       61.04820       18.58016
C        105.00036       58.71042       18.30644
C        103.27817       62.07646       19.31353
H        101.81993       60.14468       17.50294
H        102.71205       57.86485       19.30567
H        104.40955       59.56961       20.16181
H        103.88086       61.08035       17.49895
H        105.19469       61.37909       18.67227
H        105.01805       57.68002       18.72235
H        104.69866       58.66265       17.23923
H        106.03442       59.11319       18.37171
H        103.46834       63.08143       18.87866
H        102.19922       61.86480       19.18631
H        103.53496       62.10054       20.39243
N        100.47445       59.96721       20.03030
C         99.58595       60.42533       21.10268
C         99.17833       59.25126       22.00186
O         99.49053       58.11256       21.68653
C         98.31156       61.08995       20.48555
C         98.64524       62.27756       19.57057
O         97.46058       61.56137       21.49794
H        100.13282       60.03154       19.06772
H        100.12909       61.18476       21.70798
H         97.78385       60.30980       19.88520
H         96.53711       61.55708       21.13280
H         99.26520       61.98313       18.70142
H         97.70303       62.70619       19.16724
H         99.17940       63.06509       20.14213
N         98.44267       59.46693       23.13440
C         97.92537       58.37722       23.96633
C         96.62775       58.80477       24.66363
O         96.30897       59.98415       24.67128
C         99.04700       57.90909       24.93621
C         98.69317       56.67954       25.77869
O         99.40312       58.97133       25.78456
H         98.22087       60.43603       23.39207
H         97.63032       57.54581       23.28885
H         99.92021       57.63065       24.30196
H        100.29870       58.75893       26.15774
H         98.38381       55.83612       25.12571
H         99.58170       56.35951       26.36359
H         97.89729       56.91708       26.50910
N         95.80699       57.87619       25.24249
C         94.57465       58.23577       25.94748
C         93.32173       57.60041       25.35512
O         92.24447       57.97910       25.79792
C         94.72632       57.92578       27.45415
C         94.98278       56.44137       27.77511
C         95.30192       56.25105       29.26322
C         95.68304       54.79440       29.56185
N         96.05829       54.62817       30.96553
H         96.07493       56.88629       25.18906
H         94.41021       59.33242       25.87327
H         93.82229       58.26941       28.00441
H         95.59120       58.52130       27.82167
H         95.86232       56.08230       27.20954
H         94.10344       55.82668       27.48380
H         94.42840       56.55265       29.88133
H         96.16756       56.89777       29.52912
H         96.54731       54.50150       28.92351
H         94.82731       54.12563       29.32199
H         96.32395       53.63077       31.13263
H         96.87980       55.23564       31.19159
H         95.25427       54.87633       31.58604
N         93.35364       56.63890       24.38351
C         92.13988       56.05027       23.81452
C         91.96578       54.62421       24.30003
O         92.82783       54.10249       24.99617
C         92.20146       56.07372       22.27306
C         92.29080       57.48610       21.67748
C         92.47756       57.37082       20.19281
O         91.55907       57.01754       19.47037
O         93.73837       57.32681       19.73928
H         94.25838       56.27288       24.05279
H         91.23734       56.60587       24.14945
H         91.30546       55.57568       21.84429
H         93.09822       55.49067       21.95963
H         93.18374       57.99369       22.10226
H         91.39253       58.09493       21.91423
N         90.83042       53.93985       23.98974
C         90.58887       52.59063       24.44827
H         89.59210       52.24740       24.09736
H         91.36545       51.90722       24.04574
H         90.60154       52.56088       25.55864
H         90.09847       54.39751       23.42527
Ca        94.42018       56.60202       17.72464
O         93.89641       54.25866       19.47100
H         94.65261       54.56445       20.03213
H         94.32004       53.71619       18.75954
O         95.42426       59.64719       17.24732
H         95.76696       60.27608       17.93099
H         95.45185       60.16112       16.40145
O         94.75635       57.34421       14.70513
H         95.07197       57.84356       13.91064
H         95.06818       56.41627       14.55600

Ca 1.0



