%chk=apoCaM-CA-Ng.loop3.water4.frame217.chk
%nprocshared=20
%mem=10GB
%nosave
#b3lyp/svp scf=(tight,noincore,xqc) Test 
#IOP(5/87=12) Density=Current Pop=(MK,readradii) iop(6/33=2) iop(6/42=6)

apoCaM-CA-Ng.loop3.water4.frame217 

   0  1 
C         50.17764       33.74565       70.61226
C         51.40479       34.35780       71.21894
O         51.31214       35.42294       71.80970
H         49.28749       34.38740       70.78617
H         50.32240       33.62305       69.51824
H         49.99523       32.75015       71.06899
N         52.60645       33.72734       71.09797
C         53.85981       34.22507       71.65550
C         54.21406       35.57857       71.07226
O         54.39323       36.54630       71.80042
C         53.83649       34.21957       73.19687
C         53.60740       32.83137       73.72378
O         52.53111       32.56616       74.48266
O         54.39667       31.93630       73.46621
H         52.64145       32.83979       70.57272
H         54.67625       33.53263       71.34830
H         53.05163       34.90521       73.57326
H         54.81507       34.57796       73.58457
N         54.38494       35.68652       69.72799
C         54.90083       36.88609       69.07529
C         53.85905       37.99560       68.92429
O         54.16356       39.00757       68.30952
C         55.55712       36.44977       67.74629
C         56.51858       37.49724       67.16115
C         57.50615       36.82786       66.19602
C         58.58693       37.80815       65.72868
N         59.64166       37.10244       65.00142
H         54.26953       34.82710       69.16638
H         55.73885       37.27225       69.69725
H         54.81344       36.10322       66.99477
H         56.18803       35.57424       68.02082
H         57.12756       37.91541       67.99235
H         55.96536       38.32745       66.67334
H         56.97444       36.38797       65.32422
H         58.01770       36.00797       66.74807
H         59.04636       38.30450       66.61311
H         58.12968       38.59036       65.08414
H         59.24512       36.60483       64.17223
H         60.36033       37.79145       64.68366
H         60.10522       36.41087       65.63672
N         52.62439       37.89970       69.49875
C         51.58607       38.91824       69.38792
C         52.07952       40.29257       69.83458
O         52.82452       40.39000       70.79964
C         50.36185       38.49667       70.22690
C         49.18549       39.38253       69.96058
O         48.68403       40.14463       70.94049
O         48.67566       39.41152       68.85278
H         52.39522       37.06218       70.04596
H         51.27506       38.96938       68.32050
H         50.63197       38.52112       71.30705
H         50.05503       37.45871       69.97281
N         51.66089       41.40407       69.16635
C         52.08596       42.76566       69.45162
C         51.85171       43.20350       70.88105
O         52.80499       43.66078       71.49655
H         51.00351       41.28031       68.38315
H         51.53210       43.45461       68.77779
H         53.16837       42.86767       69.21419
N         50.63165       43.09385       71.48711
C         50.40701       43.53350       72.86563
C         50.38839       42.36983       73.85757
O         50.13677       42.62248       75.02871
C         49.17013       44.46726       72.99202
C         47.81498       43.83395       72.67547
N         46.72962       44.67815       73.16313
O         47.70939       42.61641       73.31161
H         49.85873       42.64121       70.97567
H         51.25674       44.16302       73.20694
H         49.29481       45.35766       72.33935
H         49.13436       44.82573       74.04401
H         46.72667       45.59421       72.66697
H         45.82444       44.19030       72.97564
N         50.72311       41.09245       73.50017
C         50.87953       40.03192       74.48665
C         49.60065       39.28958       74.80809
O         49.62492       38.50414       75.74456
H         51.02735       40.89585       72.53893
H         51.31311       40.46103       75.41761
H         51.61603       39.28531       74.11976
N         48.45654       39.45658       74.08359
C         47.19378       38.80942       74.41991
C         46.02772       39.73951       74.02249
O         45.67054       39.54184       72.67714
C         47.00824       37.41706       73.75275
C         47.81395       36.31196       74.38230
C         47.15974       35.39263       75.22019
C         49.19182       36.16967       74.15423
C         47.87023       34.37131       75.84493
C         49.90404       35.14096       74.78376
C         49.24327       34.24445       75.63859
O         49.91046       33.26151       76.27328
H         48.45416       40.14910       73.32761
H         47.13501       38.71091       75.52647
H         47.17342       37.44925       72.65201
H         45.93634       37.15463       73.89376
H         46.09642       35.47596       75.40764
H         49.71331       36.85364       73.49612
H         47.35144       33.68359       76.49987
H         50.96609       35.04458       74.61254
H         50.86692       33.15565       76.19990
N         44.87519       39.55310       74.90745
C         43.68895       40.33141       74.51568
C         43.85471       41.82513       74.82044
O         43.84855       42.59500       73.87366
C         42.43273       39.67720       75.14965
C         42.40951       38.13554       74.91556
C         41.13141       40.30364       74.61924
C         42.41906       37.69790       73.44295
H         45.13984       39.77579       75.89516
H         43.54263       40.23757       73.41958
H         42.47252       39.83321       76.25064
H         41.50987       37.70784       75.40689
H         43.29246       37.67350       75.40859
H         41.08869       41.38160       74.82001
H         41.03850       40.18320       73.52172
H         40.25566       39.83209       75.11355
H         42.40582       36.58978       73.38886
H         41.52932       38.07576       72.90140
H         43.33687       38.04225       72.92378
N         44.02697       42.31924       76.08817
C         44.17991       43.76261       76.33516
C         42.92348       44.55205       75.98347
O         43.02356       45.75430       75.77184
C         44.58731       44.06905       77.78398
O         43.57467       43.70245       78.68394
H         44.07796       41.66089       76.87833
H         45.00947       44.11628       75.68216
H         44.77423       45.15996       77.89647
H         45.54812       43.56229       78.03189
H         43.77428       42.77915       78.98604
N         41.71295       43.93445       75.87930
C         40.48441       44.55548       75.40530
C         40.69903       45.13859       74.01687
O         40.36586       46.28891       73.78122
C         39.95005       45.58781       76.41134
H         41.65887       42.93688       76.11352
H         39.71576       43.75519       75.32082
H         38.97558       45.99187       76.06086
H         39.78856       45.10529       77.39850
H         40.65738       46.43312       76.53840
N         41.33011       44.38962       73.06304
C         41.66088       44.91247       71.74189
C         41.39331       43.88489       70.65853
O         41.19075       42.71855       70.95611
C         43.13179       45.32901       71.71397
H         41.66395       43.45346       73.31882
H         41.04359       45.81179       71.53248
H         43.78375       44.45550       71.90689
H         43.40178       45.76542       70.72972
H         43.32217       46.09085       72.50053
N         41.33749       44.29010       69.35309
C         41.07581       43.41426       68.21084
C         39.73974       42.67088       68.29168
O         39.47396       41.87889       67.39694
C         42.23079       42.41170       67.98222
C         43.59426       43.10212       67.81289
C         44.65128       42.10666       67.42192
O         44.55833       41.49480       66.36917
O         45.71281       41.89256       68.22013
H         41.47629       45.29027       69.15033
H         41.03739       44.04962       67.29734
H         42.01109       41.85103       67.04630
H         42.28110       41.67554       68.80858
H         43.87867       43.59781       68.76619
H         43.53715       43.87586       67.01695
N         38.84406       42.85360       69.30627
C         37.62828       42.07693       69.40083
H         36.99963       42.23774       68.50106
H         37.88037       40.99823       69.49444
H         37.05507       42.38076       70.30277
H         39.00571       43.54976       70.04386
Ca        46.46128       41.44419       71.89156
O         48.62279       42.28703       68.18694
H         48.63702       41.64100       67.43682
H         48.99490       43.11903       67.80194
O         45.58832       38.60513       69.70143
H         45.67905       38.56974       68.71602
H         45.78239       37.68189       70.00254
O         46.49557       44.18866       69.80213
H         47.18863       44.38994       69.12509
H         46.31230       45.06009       70.23292
O         43.89495       41.39893       70.69331
H         43.22184       40.77039       71.05412
H         43.87503       42.16891       71.31308

Ca 1.0



