%chk=apoCaM-CA-Ng.loop4.water5.frame709.chk
%nprocshared=20
%mem=10GB
%nosave
#b3lyp/svp scf=(tight,noincore,xqc) Test 
#IOP(5/87=12) Density=Current Pop=(MK,readradii) iop(6/33=2) iop(6/42=6)

apoCaM-CA-Ng.loop4.water5.frame709 

   -3  1 
C        105.56380      -18.36985       -2.11880
C        106.17157      -19.52341       -1.37107
O        105.52700      -20.54849       -1.25907
H        104.60713      -18.05536       -1.66678
H        106.24761      -17.49689       -2.14639
H        105.35738      -18.68782       -3.16266
N        107.42889      -19.43300       -0.85688
C        108.19024      -20.54303       -0.28463
C        108.49744      -21.57704       -1.35476
O        108.26087      -22.76233       -1.15594
C        107.52963      -21.18500        0.95562
C        107.26469      -20.19448        2.04185
O        106.13064      -20.04864        2.45907
O        108.27371      -19.48879        2.58608
H        107.92046      -18.52969       -0.93403
H        109.17481      -20.13351        0.03427
H        108.20936      -21.96424        1.36454
H        106.58303      -21.68942        0.67264
N        109.05062      -21.17967       -2.53490
C        109.45839      -22.13005       -3.57017
C        110.67002      -22.93196       -3.07677
O        111.23311      -22.55222       -2.05825
C        109.75547      -21.39336       -4.92157
C        110.95471      -20.41026       -4.81547
C        108.47207      -20.70691       -5.43167
C        111.35274      -19.78977       -6.15572
H        109.17402      -20.16942       -2.68689
H        108.60510      -22.82456       -3.73839
H        110.02576      -22.14460       -5.68499
H        111.84212      -20.96640       -4.44530
H        110.74248      -19.58811       -4.10247
H        108.14323      -19.89567       -4.74967
H        108.61853      -20.27920       -6.44328
H        107.65159      -21.45199       -5.51515
H        110.54440      -19.14920       -6.56186
H        112.24773      -19.14846       -6.01177
H        111.60140      -20.58523       -6.88991
N        111.17269      -24.03768       -3.70239
C        110.60882      -24.70170       -4.87204
C        110.23242      -26.15144       -4.58564
O        109.77537      -26.79666       -5.51133
C        111.59395      -24.62546       -6.06300
C        112.88258      -25.38060       -5.85116
O        113.75073      -25.00774       -4.89224
O        113.16214      -26.32167       -6.57666
H        112.01849      -24.45589       -3.28673
H        109.67117      -24.20920       -5.18888
H        111.83387      -23.56503       -6.28731
H        111.08160      -25.04445       -6.95800
N        110.37626      -26.71496       -3.34602
C        110.06085      -28.08283       -2.94135
C        109.63198      -29.06122       -4.02122
O        110.42330      -29.36884       -4.90197
H        110.72427      -26.13105       -2.57397
H        109.27868      -28.02306       -2.15440
H        110.96590      -28.51848       -2.46543
N        108.41018      -29.66363       -3.94548
C        107.98975      -30.76728       -4.81075
C        107.82811      -30.42954       -6.29540
O        107.58973      -31.36024       -7.05244
C        106.72700      -31.45299       -4.22404
C        105.54594      -30.54261       -4.01249
O        104.98597      -30.01474       -4.95418
O        105.07771      -30.33299       -2.76700
H        107.79674      -29.39672       -3.16056
H        108.78867      -31.54143       -4.76599
H        107.00740      -31.86371       -3.22946
H        106.42258      -32.31153       -4.86107
N        107.98489      -29.17460       -6.81259
C        107.91174      -28.91056       -8.24905
C        106.51454      -29.07702       -8.82202
O        106.36750      -29.08345      -10.03514
H        108.19691      -28.39182       -6.18886
H        108.61885      -29.59686       -8.76431
H        108.23845      -27.87013       -8.46515
N        105.43646      -29.15880       -7.99783
C        104.04656      -29.30744       -8.40369
C        103.54765      -28.13793       -9.23401
O        102.68783      -28.31950      -10.08497
C        103.75168      -30.68829       -9.02331
C        104.13595      -31.82340       -8.06060
C        103.69405      -33.16290       -8.58655
N        104.59254      -34.14152       -8.84265
O        102.50390      -33.37295       -8.76894
H        105.59390      -29.06597       -6.99120
H        103.44400      -29.25377       -7.46835
H        104.29128      -30.81125       -9.98730
H        102.65848      -30.74859       -9.21992
H        103.64708      -31.66569       -7.07482
H        105.23384      -31.81306       -7.90682
H        105.60035      -33.98983       -8.69241
H        104.27692      -35.05851       -9.19217
N        103.98312      -26.88025       -8.95165
C        103.39243      -25.66552       -9.50432
C        102.90405      -24.74829       -8.37940
O        102.39760      -23.67705       -8.68623
C        104.42226      -24.91338      -10.40090
C        105.67504      -24.45245       -9.63212
C        104.83832      -25.77265      -11.60150
H        104.75759      -26.77560       -8.28101
H        102.51113      -25.91201      -10.13682
H        103.92458      -24.00384      -10.80633
H        106.24644      -25.31412       -9.22898
H        106.34614      -23.87956      -10.30681
H        105.39682      -23.78120       -8.79556
H        105.52062      -25.19745      -12.26380
H        105.36291      -26.69292      -11.26886
H        103.94454      -26.06051      -12.19430
N        103.10447      -25.05832       -7.06066
C        102.95127      -24.10248       -5.97539
C        102.17455      -24.71810       -4.81104
O        101.83880      -25.89484       -4.87462
C        104.39372      -23.68465       -5.63816
C        104.57129      -22.64826       -4.58137
N        105.38791      -22.90279       -3.53737
O        104.03033      -21.55741       -4.68925
H        103.54179      -25.94961       -6.79464
H        102.39314      -23.20487       -6.32252
H        104.84063      -23.26084       -6.56292
H        104.97813      -24.59356       -5.37360
H        105.87630      -23.80488       -3.44600
H        105.55951      -22.18946       -2.83029
N        101.77335      -23.95491       -3.74928
C        100.84435      -24.46973       -2.73720
C        100.04722      -23.35571       -2.07151
O        100.31011      -22.18616       -2.32146
C        101.55616      -25.35625       -1.67535
C        102.10648      -24.56627       -0.49706
C        103.09717      -23.58592       -0.66046
C        101.57798      -24.78973        0.79146
C        103.53606      -22.83754        0.43997
C        102.02091      -24.04370        1.88540
C        102.99661      -23.06195        1.71454
O        103.40085      -22.33933        2.77862
H        102.00155      -22.95161       -3.77269
H        100.09880      -25.09603       -3.27743
H        102.33492      -25.99331       -2.14566
H        100.78768      -26.05250       -1.27375
H        103.51505      -23.38958       -1.63654
H        100.80794      -25.53359        0.95334
H        104.28738      -22.07706        0.30453
H        101.59638      -24.22214        2.86592
H        104.06046      -21.63654        2.70454
N         99.05382      -23.65888       -1.19036
C         98.29216      -22.64224       -0.48095
C         98.42151      -22.87601        1.01214
O         97.93155      -23.90443        1.46090
C         96.80393      -22.72196       -0.88172
C         96.58250      -22.44764       -2.37496
C         95.12772      -22.57229       -2.72798
O         94.54777      -23.63688       -2.58015
O         94.45793      -21.51325       -3.22039
H         98.82892      -24.65044       -1.01194
H         98.65608      -21.63966       -0.74635
H         96.22653      -21.97359       -0.29403
H         96.41369      -23.73618       -0.63802
H         97.15492      -23.17325       -2.99158
H         96.93735      -21.42136       -2.61285
N         99.03701      -22.02742        1.88973
C         99.79468      -20.80652        1.59427
C         98.95772      -19.75460        0.88756
O         97.91984      -19.36262        1.40268
C        100.32067      -20.23748        2.93678
C        101.15199      -18.94541        2.84270
C        101.47537      -18.45968        4.23410
O        102.73697      -18.21518        4.63560
O        100.56738      -18.26276        5.02574
H         98.99769      -22.32055        2.88002
H        100.67169      -21.07410        0.96428
H        100.93881      -21.01429        3.43926
H         99.43335      -20.03402        3.57767
H        100.56025      -18.15419        2.33643
H        102.07857      -19.12768        2.26303
N         99.38907      -19.23252       -0.29818
C         98.68255      -18.20468       -1.03450
H         97.74245      -17.89392       -0.53390
H         99.33786      -17.31344       -1.13676
H         98.43636      -18.58278       -2.04895
H        100.27560      -19.56929       -0.70396
Ca       104.55955      -18.01455        3.33960
O        104.18250      -16.08982        5.99328
H        104.94247      -16.44174        6.52060
H        103.38345      -16.49262        6.41730
O        104.52473      -15.10512        2.10672
H        105.27785      -14.89799        2.71509
H        103.73895      -14.67508        2.52863
O        107.41464      -16.57750        4.51150
H        107.28044      -16.28418        5.44761
H        107.47546      -15.73512        3.99473
O        105.97081      -19.53305        5.63657
H        106.05646      -19.29339        6.59329
H        106.80704      -20.01936        5.42517
O        103.93301      -18.30969        0.66416
H        103.73631      -17.34815        0.53202
H        103.22040      -18.78378        0.16723

Ca 1.0



