%chk=apoCaM-CA-Ng.loop4.water5.frame703.chk
%nprocshared=20
%mem=10GB
%nosave
#b3lyp/svp scf=(tight,noincore,xqc) Test 
#IOP(5/87=12) Density=Current Pop=(MK,readradii) iop(6/33=2) iop(6/42=6)

apoCaM-CA-Ng.loop4.water5.frame703 

   -3  1 
C         91.81118      -18.73744      -17.75040
C         92.24979      -20.14127      -18.03349
O         91.64181      -20.78451      -18.87696
H         90.75618      -18.74277      -17.40704
H         92.43969      -18.26939      -16.96411
H         91.88850      -18.13241      -18.67748
N         93.31289      -20.68284      -17.36991
C         93.79899      -22.03909      -17.58443
C         94.22591      -22.21040      -19.02788
O         93.68479      -23.06377      -19.71986
C         92.74606      -23.08164      -17.13465
C         92.40927      -22.90864      -15.67978
O         91.27092      -22.63537      -15.34046
O         93.36474      -23.04920      -14.74164
H         93.81563      -20.10647      -16.67839
H         94.70307      -22.20230      -16.95511
H         93.14688      -24.10928      -17.27778
H         91.82304      -22.99355      -17.74685
N         95.23208      -21.43762      -19.53917
C         95.73051      -21.60934      -20.90278
C         96.94450      -22.53764      -20.87068
O         97.40728      -22.82318      -19.77322
C         95.92675      -20.23217      -21.62367
C         97.04830      -19.31020      -21.06791
C         94.59975      -19.45032      -21.62078
C         98.46911      -19.85653      -21.22626
H         95.71670      -20.78021      -18.90980
H         94.95169      -22.15062      -21.46641
H         96.16248      -20.41710      -22.68715
H         96.86626      -19.04227      -20.00596
H         97.02517      -18.36804      -21.66008
H         93.79253      -20.05148      -22.08982
H         94.29480      -19.18260      -20.58628
H         94.70320      -18.50978      -22.20489
H         98.65692      -20.15010      -22.28140
H         99.20006      -19.06915      -20.94679
H         98.65985      -20.71410      -20.55809
N         97.51605      -23.12621      -21.96725
C         97.10694      -22.99660      -23.36607
C         95.64421      -23.36082      -23.52794
O         94.88037      -22.54849      -24.03240
C         97.99710      -23.90525      -24.24179
C         97.69753      -23.75669      -25.70594
O         97.33487      -24.72132      -26.35968
O         97.84693      -22.56118      -26.30779
H         98.30614      -23.76201      -21.76934
H         97.27842      -21.95476      -23.70384
H         97.86725      -24.96660      -23.93313
H         99.06330      -23.63182      -24.08378
N         95.17052      -24.53614      -23.03084
C         93.75583      -24.85437      -22.97621
C         93.12402      -25.10966      -24.32064
O         93.79006      -25.07639      -25.34642
H         95.82644      -25.18652      -22.57256
H         93.21758      -24.03000      -22.45925
H         93.62156      -25.77893      -22.37417
N         91.79803      -25.41945      -24.35480
C         91.08131      -25.80875      -25.56358
C         91.03062      -24.74601      -26.64990
O         90.61118      -25.09485      -27.74460
C         89.64570      -26.29550      -25.22663
C         88.74849      -25.24309      -24.61250
O         87.70644      -24.93327      -25.16553
O         89.05269      -24.67552      -23.42965
H         91.30630      -25.45795      -23.45102
H         91.62891      -26.67766      -25.99169
H         89.71067      -27.14897      -24.51933
H         89.16918      -26.67291      -26.15936
N         91.42508      -23.45098      -26.46524
C         91.35366      -22.48337      -27.55107
C         89.93103      -22.19763      -27.99969
O         89.76935      -21.56704      -29.03465
H         91.79170      -23.13709      -25.55568
H         91.94004      -22.88142      -28.40759
H         91.81513      -21.51930      -27.24462
N         88.85133      -22.56938      -27.24500
C         87.46125      -22.29362      -27.59686
C         87.16682      -20.79953      -27.68225
O         86.07801      -20.43746      -28.10554
C         87.01048      -23.11256      -28.83012
C         87.20047      -24.61890      -28.54849
C         86.62518      -25.54752      -29.58314
N         86.75582      -26.88503      -29.41459
O         86.03260      -25.11275      -30.55936
H         89.00603      -23.04060      -26.34565
H         86.81382      -22.65551      -26.76636
H         87.56203      -22.81712      -29.74782
H         85.92652      -22.92207      -28.99366
H         86.70825      -24.87443      -27.58636
H         88.28176      -24.83170      -28.46164
H         87.25380      -27.26350      -28.59396
H         86.36044      -27.54567      -30.09928
N         88.04063      -19.88667      -27.15996
C         87.75859      -18.46265      -27.02562
C         87.55984      -18.09075      -25.55731
O         87.14623      -16.96756      -25.30201
C         88.87894      -17.60298      -27.67743
C         90.27225      -17.89350      -27.08341
C         88.90937      -17.80046      -29.19771
H         88.91715      -20.21970      -26.74456
H         86.79302      -18.22020      -27.52289
H         88.64468      -16.53141      -27.49038
H         90.27003      -17.75040      -25.98243
H         90.60558      -18.92844      -27.30899
H         91.02536      -17.20456      -27.51938
H         87.92800      -17.52094      -29.63652
H         89.68658      -17.14868      -29.65162
H         89.13247      -18.85598      -29.45933
N         87.80706      -18.97587      -24.54312
C         87.52383      -18.71416      -23.13708
C         86.52987      -19.77609      -22.65868
O         86.20282      -20.66587      -23.43614
C         88.87971      -18.65914      -22.38923
C         88.83698      -18.16775      -20.95804
N         89.36867      -16.96613      -20.62701
O         88.35646      -18.86545      -20.08110
H         88.20116      -19.90333      -24.75032
H         87.03737      -17.71933      -23.02980
H         89.50341      -17.93633      -22.96097
H         89.39747      -19.64099      -22.43527
H         89.79255      -16.35491      -21.34017
H         89.35003      -16.63820      -19.64974
N         85.92513      -19.70166      -21.44187
C         84.83950      -20.60789      -21.05311
C         84.14730      -20.14997      -19.77821
O         84.60900      -19.21202      -19.14150
C         85.27348      -22.09746      -20.93804
C         86.05267      -22.44879      -19.68935
C         87.35094      -21.96479      -19.46350
C         85.46634      -23.30132      -18.73562
C         88.04570      -22.32515      -18.30022
C         86.15880      -23.65966      -17.58078
C         87.44712      -23.17594      -17.35669
O         88.09475      -23.53918      -16.23333
H         86.15738      -18.89880      -20.84548
H         84.08057      -20.54306      -21.86522
H         85.83296      -22.43991      -21.83107
H         84.33602      -22.69352      -20.93554
H         87.82731      -21.32288      -20.18943
H         84.46716      -23.69186      -18.88183
H         89.04791      -21.94917      -18.13509
H         85.69093      -24.31610      -16.85804
H         88.98405      -23.22587      -16.03072
N         83.00357      -20.76021      -19.35778
C         82.28063      -20.33456      -18.17072
C         82.13245      -21.50349      -17.20881
O         81.21641      -22.29158      -17.40379
C         80.90929      -19.77147      -18.60248
C         80.09590      -19.22168      -17.42169
C         78.77126      -18.69070      -17.88805
O         78.72248      -17.76952      -18.68778
O         77.62787      -19.22682      -17.41998
H         82.60831      -21.53187      -19.91754
H         82.80533      -19.50159      -17.67553
H         80.32524      -20.56523      -19.12084
H         81.08304      -18.94757      -19.33021
H         80.66122      -18.40512      -16.92326
H         79.91499      -20.02851      -16.68005
N         82.97382      -21.74529      -16.15931
C         84.21289      -21.03269      -15.85134
C         84.00666      -19.57587      -15.49033
O         83.16456      -19.26813      -14.65868
C         84.95692      -21.74812      -14.69890
C         86.35030      -21.13536      -14.46760
C         87.22493      -21.92473      -13.53710
O         88.49022      -21.50539      -13.35291
O         86.83751      -22.95381      -13.00536
H         82.74844      -22.56831      -15.57697
H         84.87620      -21.10568      -16.74146
H         85.08996      -22.81066      -14.99489
H         84.36162      -21.72012      -13.75877
H         86.25422      -20.09916      -14.07916
H         86.88384      -21.09705      -15.44045
N         84.82412      -18.63304      -16.04338
C         84.76518      -17.22190      -15.72952
H         83.93621      -16.97727      -15.03462
H         85.72413      -16.91431      -15.25931
H         84.62954      -16.64453      -16.66754
H         85.56470      -18.93192      -16.69606
Ca        90.09081      -22.70336      -12.31956
O         90.91130      -20.41460      -10.55131
H         91.36330      -20.06380      -11.35961
H         91.55081      -21.07017      -10.17444
O         92.67522      -23.83005      -11.48386
H         93.64414      -24.03004      -11.50796
H         92.36689      -24.18291      -10.61148
O         88.61152      -24.31971      -10.37347
H         88.66514      -24.82456      -11.22402
H         88.14263      -23.48029      -10.61141
O         90.11706      -25.34878      -13.87762
H         90.65044      -26.00874      -13.36733
H         89.19036      -25.69570      -13.84161
O         89.90468      -19.68740      -15.00446
H         88.99255      -19.35126      -14.81541
H         90.49460      -19.14132      -14.42676

Ca 1.0



