%chk=apoCaM-CA-Ng.loop1.water3.frame72.chk
%nprocshared=20
%mem=10GB
%nosave
#b3lyp/svp scf=(tight,noincore,xqc) Test 
#IOP(5/87=12) Density=Current Pop=(MK,readradii) iop(6/33=2) iop(6/42=6)

apoCaM-CA-Ng.loop1.water3.frame72 

   0  1 
C         56.28333       41.25364       83.48371
C         55.87927       41.64520       84.87398
O         56.65457       41.46130       85.80055
H         57.30970       40.82947       83.47455
H         55.57778       40.48645       83.09958
H         56.25332       42.14066       82.81703
N         54.65511       42.19914       85.09225
C         54.18093       42.60048       86.41670
C         53.90007       41.42070       87.36185
O         53.48138       41.66633       88.48447
C         52.92829       43.50767       86.29592
C         51.69990       42.81974       85.76351
O         50.59336       42.74657       86.52796
O         51.68045       42.36116       84.63302
H         54.06999       42.38582       84.26501
H         54.96852       43.23290       86.86791
H         53.16343       44.37643       85.64273
H         52.68716       43.91051       87.30362
N         54.08895       40.12420       86.97836
C         53.72610       38.95012       87.77082
C         54.97870       38.14248       88.08654
O         55.76434       37.95918       87.16644
C         52.76671       38.09249       86.92562
C         51.48502       38.85779       86.55640
C         50.58959       38.00184       85.65232
C         49.25343       38.67569       85.29562
N         49.42908       39.91833       84.54314
H         54.46862       39.92600       86.04453
H         53.18866       39.22684       88.68800
H         52.49184       37.17603       87.48968
H         53.28563       37.78207       85.99115
H         51.75761       39.78612       86.01359
H         50.93981       39.13151       87.48608
H         50.35875       37.05068       86.17857
H         51.13858       37.75863       84.71576
H         48.67456       38.88050       86.22306
H         48.66887       37.96268       84.67418
H         50.01644       39.75523       83.69324
H         48.49169       40.27290       84.24579
H         49.86436       40.64471       85.14927
N         55.27555       37.56865       89.29765
C         54.47071       37.50463       90.52061
C         53.12755       36.84076       90.26156
O         52.10628       37.47699       90.48487
C         54.31658       38.87007       91.23238
C         55.62552       39.56802       91.40507
O         56.64930       38.96916       92.04361
O         55.76058       40.69473       90.96118
H         56.16809       37.05059       89.34339
H         55.01903       36.86341       91.24798
H         53.86666       38.69097       92.23264
H         53.63134       39.55449       90.70166
N         52.99610       35.57677       89.76588
C         54.06536       34.63426       89.46048
C         53.75330       33.27920       90.07522
O         52.59498       32.88655       90.01757
H         52.03439       35.26209       89.55896
H         55.07171       35.00037       89.73333
H         54.05274       34.48633       88.35986
N         54.68888       32.42642       90.58835
C         56.13413       32.64408       90.58089
C         56.61994       33.65138       91.61029
O         57.81452       33.93138       91.60529
C         56.88758       31.30380       90.79578
C         56.71897       30.71096       92.17580
O         55.62097       30.36726       92.58257
O         57.79676       30.53786       92.96436
H         54.33910       31.50242       90.88070
H         56.41320       32.99559       89.56297
H         57.97330       31.47973       90.62817
H         56.55407       30.56425       90.03607
N         55.80375       34.21538       92.54323
C         56.35036       35.12617       93.53690
C         55.32405       35.72994       94.46241
O         54.14006       35.42914       94.37055
H         54.79892       33.98658       92.54810
H         56.84572       35.96883       93.00505
H         57.11121       34.59360       94.14937
N         55.73560       36.67744       95.34841
C         54.82433       37.47943       96.15551
C         54.65588       38.83304       95.48103
O         55.28646       39.07520       94.46224
C         55.25970       37.53599       97.64454
C         56.70049       38.01672       97.85767
O         55.11777       36.25812       98.21078
H         56.73338       36.94109       95.33455
H         53.80417       37.03533       96.13626
H         54.56967       38.24131       98.16288
H         54.95995       36.38689       99.18386
H         57.42583       37.28628       97.44109
H         56.86241       39.00918       97.39041
H         56.90655       38.09621       98.94675
N         53.73213       39.72493       95.93087
C         53.32373       40.90583       95.17469
C         53.86363       42.15349       95.84909
O         53.59154       42.37481       97.02118
C         51.76248       40.93931       95.03755
C         51.18525       39.86962       94.06384
C         51.27088       42.31151       94.52996
C         51.44544       38.40806       94.41556
H         53.23781       39.52824       96.81457
H         53.73909       40.88813       94.14262
H         51.31498       40.79623       96.04676
H         51.56519       40.05206       93.03412
H         50.07948       39.99132       94.04574
H         51.55799       43.12659       95.22573
H         51.68647       42.52977       93.52373
H         50.16153       42.32758       94.47099
H         51.09475       38.18027       95.44338
H         50.89815       37.76064       93.69766
H         52.51093       38.15388       94.30381
N         54.59837       43.04531       95.11643
C         55.10813       44.31231       95.63350
C         54.43883       45.51766       94.96400
O         54.74995       46.63466       95.35122
C         56.64937       44.36505       95.49059
C         57.12558       44.39638       94.02793
O         57.20370       43.25475       96.14817
H         54.77640       42.83034       94.12408
H         54.87481       44.39203       96.71808
H         56.99804       45.29912       95.98980
H         58.17010       43.44378       96.27389
H         56.71630       45.28460       93.50303
H         58.23330       44.46557       93.99692
H         56.82563       43.48181       93.47780
N         53.49333       45.37049       93.98316
C         52.73849       46.45394       93.34681
C         53.62467       47.37520       92.51307
O         54.84261       47.28838       92.59201
C         51.90645       47.25341       94.39368
C         51.07973       46.33622       95.29972
O         51.02941       48.13516       93.74061
H         53.23905       44.42428       93.67234
H         52.02931       45.96858       92.63770
H         52.61035       47.83044       95.03689
H         50.91751       48.93091       94.32340
H         51.73841       45.66145       95.88526
H         50.50225       46.95183       96.02186
H         50.37347       45.72664       94.69828
N         53.05681       48.28927       91.66860
C         53.82616       49.26819       90.90342
C         54.78532       48.65698       89.89236
O         55.57281       49.41265       89.33870
C         52.88955       50.28400       90.20171
C         52.03109       49.66215       89.08240
C         51.07904       50.70422       88.47672
C         50.24994       50.15708       87.30060
N         49.37381       49.05101       87.69315
H         52.03075       48.32231       91.60711
H         54.43335       49.84023       91.64027
H         53.50234       51.10272       89.76263
H         52.22721       50.73736       90.97194
H         51.43693       48.82463       89.49628
H         52.69489       49.26834       88.28224
H         51.67760       51.56128       88.09713
H         50.39256       51.08316       89.26546
H         50.92698       49.82515       86.48265
H         49.62278       50.98834       86.90820
H         48.75585       49.34074       88.48548
H         48.77532       48.78779       86.87728
H         49.93428       48.21172       87.96241
N         54.80317       47.32225       89.59711
C         55.78087       46.75965       88.67455
C         55.57292       47.31241       87.27704
O         54.56074       47.02252       86.65382
C         55.75078       45.20820       88.68306
C         56.09908       44.54780       90.04662
C         57.48941       44.88725       90.55146
O         58.41491       43.94909       90.84167
O         57.78499       46.04820       90.77062
H         54.13286       46.68879       90.05327
H         56.78315       47.08172       88.99928
H         56.46652       44.82827       87.92207
H         54.72645       44.88656       88.39394
H         56.00519       43.44512       89.93215
H         55.35875       44.86550       90.81025
N         56.50622       48.15367       86.74311
C         56.41055       48.74382       85.42548
H         57.32372       48.48789       84.84800
H         55.52345       48.38633       84.86402
H         56.35165       49.84876       85.52320
H         57.32932       48.41572       87.30654
Ca        58.24051       41.72325       91.09325
O         57.97686       40.53609       88.61133
H         57.32393       39.82825       88.38838
H         58.34345       40.83254       87.74218
O         58.24531       40.68051       94.20979
H         57.41814       40.71022       94.75266
H         58.55268       41.62090       94.17576
O         60.40166       39.17339       91.55524
H         61.38088       39.06131       91.45880
H         60.05710       38.25296       91.67629

Ca 1.0



