%chk=apoCaM-CA-Ng.loop1.water6.frame689.chk
%nprocshared=20
%mem=10GB
%nosave
#b3lyp/svp scf=(tight,noincore,xqc) Test 
#IOP(5/87=12) Density=Current Pop=(MK,readradii) iop(6/33=2) iop(6/42=6)

apoCaM-CA-Ng.loop1.water6.frame689 

   0  1 
C         78.37663       63.28849       59.77427
C         77.42889       64.45355       59.73532
O         77.77201       65.47182       59.15178
H         79.31986       63.59421       60.27407
H         77.94740       62.43057       60.33412
H         78.60374       62.95689       58.73976
N         76.20900       64.37529       60.33990
C         75.24247       65.47568       60.33722
C         75.79822       66.73735       60.99393
O         76.86600       66.69032       61.58922
C         73.90531       65.05309       61.00329
C         74.04264       64.66816       62.45848
O         74.77655       63.59396       62.80812
O         73.46763       65.31095       63.32204
H         75.95916       63.48199       60.78430
H         75.02914       65.72025       59.27334
H         73.47632       64.18767       60.45357
H         73.18117       65.89170       60.91582
N         75.12493       67.92184       60.88205
C         75.62295       69.18309       61.43112
C         74.66027       69.82544       62.42456
O         75.02666       70.84978       62.98566
C         75.83101       70.20572       60.29162
C         76.80663       69.76026       59.19521
C         76.97929       70.90447       58.17748
C         77.96690       70.59206       57.04382
N         77.47635       69.54255       56.14995
H         74.24619       67.93768       60.34198
H         76.58879       69.02210       61.95734
H         76.21802       71.15053       60.73426
H         74.84613       70.42271       59.81750
H         76.40779       68.85134       58.69804
H         77.79222       69.52267       59.65063
H         77.37080       71.79174       58.72244
H         75.99540       71.17986       57.73694
H         78.95489       70.30656       57.46716
H         78.10619       71.52241       56.44863
H         77.38493       68.63395       56.65575
H         76.55349       69.82144       55.74348
H         78.16028       69.41933       55.36867
N         73.39504       69.35618       62.62668
C         72.39015       70.08839       63.39975
C         71.77702       69.19255       64.48451
O         72.11212       68.01602       64.50737
C         71.39680       70.69805       62.37189
C         70.60679       69.71702       61.53910
O         70.68936       68.38722       61.73564
O         69.87330       70.14214       60.66087
H         73.08945       68.50990       62.13089
H         72.86625       70.94475       63.91938
H         71.99973       71.31977       61.67323
H         70.69033       71.39652       62.83659
N         70.89551       69.62020       65.44409
C         70.38273       70.97070       65.61018
C         71.41542       71.97514       66.07046
O         72.50349       71.60214       66.48815
H         70.53576       68.91458       66.10636
H         69.59218       70.97145       66.39158
H         69.86772       71.29787       64.69845
N         71.09849       73.30164       66.03765
C         71.97501       74.35981       66.53634
C         72.02173       74.41253       68.06334
O         72.76508       75.22975       68.59075
C         71.56033       75.74284       65.97471
C         70.21908       76.24086       66.45526
O         70.14658       77.38360       67.16363
O         69.19215       75.63936       66.18681
H         70.20453       73.55631       65.59689
H         73.00033       74.16825       66.14631
H         71.56031       75.70302       64.86397
H         72.33237       76.48506       66.27705
N         71.25373       73.59276       68.84356
C         71.25169       73.62898       70.29900
C         72.55451       73.19583       70.94989
O         72.59169       73.16949       72.17220
H         70.59901       72.93184       68.40447
H         70.46205       72.93654       70.66466
H         70.98720       74.65365       70.64060
N         73.66254       72.85216       70.22948
C         74.92205       72.46303       70.85638
C         74.87404       71.01671       71.32409
O         73.88057       70.33803       71.09610
C         76.13006       72.77273       69.93013
C         76.13993       72.00378       68.60281
O         76.14632       74.15319       69.66123
H         73.62749       72.89285       69.20807
H         75.07761       73.09878       71.75746
H         77.05448       72.49102       70.48613
H         77.09269       74.45289       69.68941
H         76.12960       70.90953       68.78252
H         75.28192       72.27663       67.95609
H         77.06429       72.26111       68.04304
N         75.92226       70.48598       72.01754
C         75.89253       69.15009       72.60528
C         75.14977       69.18159       73.93605
O         74.72223       68.13251       74.39460
C         77.34429       68.60726       72.77881
C         78.12895       68.59087       71.43838
C         77.39644       67.22272       73.45357
C         77.55142       67.66893       70.35951
H         76.73415       71.08849       72.21955
H         75.32900       68.47501       71.92401
H         77.88471       69.30822       73.45460
H         79.17461       68.27467       71.64404
H         78.17813       69.61937       71.02174
H         78.45039       66.89067       73.55920
H         76.98132       67.26324       74.48056
H         76.82883       66.46655       72.87401
H         78.19127       67.72384       69.45415
H         77.53503       66.61408       70.70060
H         76.52785       67.98108       70.06930
N         74.94248       70.35528       74.60192
C         74.21323       70.45335       75.86099
C         75.09763       71.11580       76.91357
O         76.20912       71.51377       76.59365
C         72.91775       71.25647       75.58763
C         72.05618       70.54543       74.53344
O         72.16344       71.39604       76.76111
H         75.29327       71.23761       74.20323
H         73.93628       69.44535       76.24011
H         73.21169       72.26364       75.20610
H         71.53879       72.15295       76.61115
H         71.13500       71.13073       74.33727
H         72.60056       70.44162       73.57200
H         71.77112       69.53316       74.89312
N         74.66246       71.26280       78.20155
C         75.44560       71.93064       79.23373
C         75.73440       70.95519       80.35959
O         76.90386       70.67277       80.58826
C         74.72616       73.22920       79.68749
C         75.59355       74.06809       80.62894
O         73.49886       72.96080       80.31401
H         73.74024       70.89241       78.46491
H         76.42334       72.25654       78.81339
H         74.55084       73.86628       78.78837
H         72.83583       72.78424       79.59696
H         76.54574       74.34486       80.12860
H         75.05645       75.00291       80.89753
H         75.83013       73.51608       81.55929
N         74.73142       70.39305       81.10071
C         74.97818       69.42546       82.16733
C         74.21766       68.14042       81.87800
O         73.38591       68.13457       80.97824
C         74.58702       70.02208       83.54081
C         75.19826       71.42811       83.72145
C         74.96142       72.07135       85.09331
C         75.79277       71.41090       86.20187
N         75.64809       72.13707       87.46335
H         73.75325       70.65601       80.91328
H         76.06268       69.18158       82.20314
H         74.93395       69.32861       84.33520
H         73.48125       70.12004       83.61655
H         74.71533       72.09158       82.97405
H         76.29119       71.41047       83.51854
H         73.87830       72.06421       85.34541
H         75.28991       73.13169       85.01734
H         76.86589       71.42432       85.90530
H         75.48005       70.35512       86.34442
H         74.65162       72.11766       87.77896
H         76.24723       71.68294       88.18989
H         75.96149       73.12874       87.34572
N         74.47420       66.99317       82.57042
C         73.77771       65.73655       82.28734
C         73.86132       65.36057       80.80713
O         72.80209       65.21137       80.21410
C         74.26873       64.56002       83.16604
C         73.94559       64.75120       84.65394
C         74.39702       63.55576       85.44564
O         75.70200       63.22389       85.48463
O         73.58509       62.88055       86.05822
H         75.20633       67.01245       83.29719
H         72.69766       65.87795       82.52377
H         75.35597       64.38888       83.03848
H         73.74161       63.63745       82.83264
H         72.84617       64.87734       84.77114
H         74.44928       65.65403       85.05575
N         75.01885       65.19145       80.10157
C         76.36557       65.37663       80.59869
H         76.86928       66.15599       79.98937
H         76.41091       65.70146       81.64959
H         76.92643       64.42476       80.49459
H         74.93796       64.92575       79.10740
Ca        75.14507       62.97431       64.94528
O         72.81479       61.24147       63.99373
H         72.08637       61.87346       64.21824
H         73.02049       60.78629       64.84870
O         73.09894       64.00407       66.71691
H         72.39636       63.31247       66.80804
H         72.60421       64.85629       66.62450
O         76.29382       65.37730       66.54211
H         77.14442       65.78475       66.24081
H         75.59027       65.96327       66.16502
O         74.80800       61.18168       67.36131
H         75.55637       60.55834       67.18288
H         73.99994       60.60969       67.35426
O         77.73064       64.37482       63.85275
H         77.11256       64.55937       63.10385
H         78.60608       64.70562       63.53212
O         77.04097       60.78526       63.63158
H         77.09784       60.30689       64.49681
H         76.36109       60.28372       63.11513

Ca 1.0



