%chk=apoCaM-CA-Ng.loop3.water5.frame342.chk
%nprocshared=20
%mem=10GB
%nosave
#b3lyp/svp scf=(tight,noincore,xqc) Test 
#IOP(5/87=12) Density=Current Pop=(MK,readradii) iop(6/33=2) iop(6/42=6)

apoCaM-CA-Ng.loop3.water5.frame342 

   0  1 
C         89.62840       74.72531       47.86979
C         90.07475       74.48268       46.45983
O         89.53173       73.61005       45.80087
H         88.79995       74.03960       48.14750
H         90.48207       74.55048       48.55886
H         89.28279       75.77435       47.97858
N         91.08679       75.22802       45.93674
C         91.64583       75.05319       44.60187
C         92.28923       73.67829       44.48342
O         92.00325       72.93807       43.55144
C         90.58411       75.36273       43.51662
C         91.16330       75.37586       42.12882
O         90.73393       74.61478       41.27616
O         92.14438       76.24289       41.81362
H         91.51113       75.95669       46.53183
H         92.46428       75.79982       44.49150
H         90.15487       76.36913       43.71056
H         89.75737       74.62315       43.56302
N         93.19188       73.27898       45.42834
C         93.92663       72.01547       45.36307
C         93.02284       70.77803       45.44642
O         93.53117       69.67552       45.30591
C         94.97686       71.96679       46.50356
C         96.13027       70.99137       46.21361
C         97.10297       70.90315       47.39363
C         98.35164       70.10361       46.99712
N         99.25586       69.93857       48.13335
H         93.39972       73.93395       46.19832
H         94.46350       72.02106       44.38828
H         94.46547       71.73539       47.46537
H         95.45496       72.96617       46.60553
H         96.66508       71.36942       45.31414
H         95.77295       69.96581       46.00125
H         96.58476       70.41052       48.24654
H         97.42079       71.92071       47.70881
H         98.88040       70.64832       46.18225
H         98.05990       69.10025       46.61512
H         99.52052       70.87042       48.52733
H         98.79412       69.35920       48.87159
H        100.12116       69.44816       47.81060
N         91.68005       70.87027       45.68310
C         90.79779       69.70900       45.79100
C         90.86619       68.84055       44.53511
O         91.39911       69.26659       43.51873
C         89.36680       70.21644       46.13269
C         88.28474       69.18100       46.22891
O         87.64179       68.93989       47.38224
O         87.90752       68.60585       45.22865
H         91.26395       71.79630       45.82563
H         91.16783       69.08622       46.63541
H         89.04291       70.95167       45.36410
H         89.42778       70.74957       47.10689
N         90.40461       67.55939       44.57663
C         90.50739       66.61888       43.47397
C         89.80335       67.11804       42.23878
O         90.42511       67.18056       41.18816
H         89.99039       67.21096       45.45366
H         90.04379       65.65763       43.78271
H         91.57845       66.41938       43.24996
N         88.50446       67.51835       42.30522
C         87.74748       68.01267       41.16281
C         87.57196       69.52929       41.19150
O         87.03079       70.05621       40.22813
C         86.40955       67.24103       41.07745
C         85.51597       67.42980       42.28764
N         84.93937       68.62391       42.56026
O         85.29883       66.47856       43.02336
H         88.03321       67.48335       43.21408
H         88.31298       67.80431       40.22816
H         86.66401       66.16028       40.99217
H         85.84701       67.52483       40.16347
H         85.07580       69.43636       41.94485
H         84.33322       68.73555       43.38603
N         88.02361       70.30195       42.22574
C         87.96330       71.75849       42.24023
C         87.12208       72.32200       43.37214
O         87.13661       73.52990       43.55136
H         88.46994       69.85641       43.03839
H         87.56537       72.16867       41.28671
H         89.00374       72.13093       42.35547
N         86.32142       71.52924       44.14012
C         85.46476       72.04670       45.20547
C         84.46724       70.97699       45.59320
O         84.88667       69.93504       46.07507
C         86.30564       72.43071       46.44989
C         85.44541       72.76047       47.65305
C         84.65396       73.91878       47.68244
C         85.41253       71.88055       48.75203
C         83.84125       74.19019       48.79092
C         84.58973       72.14477       49.84943
C         83.79875       73.30105       49.87231
O         82.98777       73.56014       50.91818
H         86.26926       70.52621       43.91846
H         84.89778       72.92659       44.83013
H         86.99474       73.27099       46.23319
H         86.93147       71.55153       46.70162
H         84.66492       74.60798       46.84834
H         86.00567       70.97428       48.75212
H         83.23122       75.08403       48.80311
H         84.56120       71.44496       50.67598
H         82.90952       72.95579       51.67071
N         83.12810       71.16723       45.40032
C         82.14218       70.17407       45.80797
C         81.59501       69.39717       44.62443
O         81.19316       68.26535       44.84631
C         81.03858       70.76211       46.74378
C         80.15928       71.83791       46.05324
C         81.68184       71.33981       48.01288
C         78.95269       72.26599       46.89668
H         82.80443       72.02970       44.93999
H         82.65634       69.39338       46.40976
H         80.38486       69.91232       47.04439
H         79.75468       71.43348       45.11630
H         80.75881       72.73553       45.79369
H         82.31001       72.21049       47.74472
H         80.92322       71.66158       48.75287
H         82.31067       70.58260       48.51457
H         78.33332       71.38164       47.16079
H         79.26304       72.78624       47.82462
H         78.32423       72.97218       46.31455
N         81.58656       69.87024       43.34113
C         81.14233       69.03602       42.21923
C         79.68562       68.57603       42.33653
O         79.30111       67.68860       41.59114
C         81.36129       69.74387       40.87445
O         82.71886       70.07167       40.72284
H         81.93895       70.82065       43.15105
H         81.77658       68.11978       42.22632
H         80.75499       70.67346       40.82389
H         81.02574       69.06677       40.05243
H         83.00563       69.75671       39.82596
N         78.83900       69.09819       43.27306
C         77.50016       68.60315       43.56955
C         77.59317       67.17020       44.05931
O         76.93978       66.27801       43.53302
C         76.54222       68.81362       42.39400
H         79.16557       69.86262       43.86305
H         77.10062       69.20402       44.41889
H         76.85255       68.23494       41.50162
H         75.51753       68.49962       42.68594
H         76.51335       69.89313       42.13187
N         78.44841       66.89909       45.07932
C         78.68932       65.59127       45.66250
C         78.52295       65.71365       47.15546
O         79.12648       66.60488       47.74077
C         80.11250       65.13549       45.34067
H         78.98715       67.68693       45.46715
H         78.00191       64.82331       45.24272
H         80.24755       65.06601       44.23999
H         80.85706       65.84406       45.75206
H         80.29823       64.13128       45.78005
N         77.71983       64.85949       47.84477
C         77.45631       64.96678       49.27606
C         76.57942       66.17499       49.60067
O         76.32347       66.40974       50.77377
C         78.75993       64.97411       50.12690
C         79.79063       63.90250       49.72990
C         79.21816       62.51624       49.71910
O         79.22808       61.86099       48.68880
O         78.69560       61.98711       50.84075
H         77.26807       64.08441       47.33499
H         76.87594       64.06784       49.57945
H         78.47829       64.83909       51.19457
H         79.27088       65.95791       50.05997
H         80.64073       63.94140       50.44506
H         80.19582       64.13985       48.72231
N         76.04693       66.96693       48.62142
C         75.20786       68.10649       48.91775
H         74.31605       67.78347       49.49494
H         75.78169       68.85857       49.49833
H         74.86388       68.57625       47.97050
H         76.20963       66.76127       47.62677
Ca        85.98001       67.41767       47.18537
O         83.54169       66.65895       45.50311
H         83.03535       66.78049       46.34544
H         83.23857       65.78414       45.15220
O         84.07645       68.83460       48.74330
H         83.28504       68.24105       48.77854
H         84.67297       68.50648       49.46109
O         85.26605       64.48105       46.79496
H         84.69404       64.09935       47.50686
H         85.79927       63.71581       46.46337
O         87.78678       65.57910       45.48584
H         88.47429       65.31619       46.14821
H         87.85605       64.89950       44.76960
O         87.20935       66.17077       49.45764
H         87.96779       66.64725       49.03497
H         87.32608       65.22708       49.18248

Ca 1.0



