%chk=apoCaM-CA-Ng.loop1.water1.frame920.chk
%nprocshared=20
%mem=10GB
%nosave
#b3lyp/svp scf=(tight,noincore,xqc) Test 
#IOP(5/87=12) Density=Current Pop=(MK,readradii) iop(6/33=2) iop(6/42=6)

apoCaM-CA-Ng.loop1.water1.frame920 

   0  1 
C         12.81397       25.03757        1.95310
C         13.56001       23.93383        2.64117
O         13.62834       22.83510        2.10821
H         11.98198       25.38570        2.60005
H         13.50289       25.88561        1.75537
H         12.39413       24.68643        0.98621
N         14.16270       24.16564        3.84020
C         14.91997       23.14447        4.55262
C         14.08624       21.84248        4.82929
O         12.78718       21.97940        5.34766
C         15.79242       23.73125        5.72693
C         15.39765       25.00847        6.47057
O         16.13951       25.97734        6.41494
O         14.30191       25.09436        7.24297
H         14.09359       25.11383        4.23807
H         15.69206       22.75288        3.85115
H         16.76257       24.00433        5.25101
H         16.04457       22.92882        6.45047
N         14.85843       20.80657        5.53130
C         14.13080       19.52460        5.65691
C         13.83431       19.27756        7.11737
O         14.76594       19.23975        7.91054
C         14.94233       18.30995        5.14399
C         15.16138       18.30641        3.62161
C         15.76916       16.98057        3.12418
C         17.18146       16.70428        3.66649
N         17.69731       15.43646        3.14966
H         15.77180       20.67814        5.03858
H         13.17766       19.53054        5.07903
H         14.35683       17.39420        5.38850
H         15.91304       18.25838        5.68083
H         15.80023       19.15872        3.30897
H         14.17164       18.41536        3.12627
H         15.81832       17.01757        2.01425
H         15.09448       16.14276        3.40864
H         17.16729       16.64834        4.77527
H         17.86058       17.53107        3.36271
H         17.08315       14.64757        3.45838
H         17.74095       15.46098        2.10516
H         18.66011       15.27902        3.52599
N         12.56016       19.02333        7.52984
C         12.23126       18.61797        8.89456
C         11.69220       17.19687        8.87128
O         11.40210       16.70065        7.79034
C         11.15441       19.55726        9.47185
C         11.59724       20.99021        9.46624
O         10.96899       21.82321        8.83219
O         12.68243       21.36493       10.16729
H         11.79801       19.04723        6.83394
H         13.14450       18.63924        9.52600
H         10.90357       19.27026       10.51361
H         10.22731       19.46039        8.86168
N         11.49432       16.44359        9.98821
C         11.88265       16.76141       11.35205
C         12.74725       15.64287       11.89931
O         13.16310       14.77676       11.14135
H         11.04640       15.52728        9.86008
H         10.95274       16.79927       11.95775
H         12.40923       17.73047       11.45448
N         13.02423       15.56844       13.23050
C         13.70722       14.41768       13.81905
C         12.83396       13.17805       13.64890
O         11.71359       13.17401       14.14236
C         13.98055       14.67206       15.32091
C         14.74541       13.56983       16.01505
O         15.11465       12.57187       15.41553
O         15.03301       13.69436       17.32439
H         12.69694       16.33082       13.84426
H         14.69143       14.28634       13.31539
H         13.01536       14.81985       15.85278
H         14.57722       15.60432       15.42019
N         13.28506       12.08331       12.96875
C         12.49311       10.86840       12.81763
C         11.26235       11.02605       11.93983
O         10.50190       10.07329       11.84739
H         14.24222       12.08895       12.58555
H         12.18511       10.52205       13.82832
H         13.12086       10.07195       12.36292
N         11.00737       12.17431       11.25033
C          9.83412       12.39130       10.41006
C          9.04580       13.56854       10.98579
O          9.47889       14.13663       11.98169
C         10.29490       12.64179        8.94534
C         11.21984       11.53020        8.43337
O          9.18022       12.72789        8.09665
H         11.67382       12.94825       11.30700
H          9.17582       11.49516       10.42069
H         10.87101       13.58893        8.91065
H          9.46823       13.22003        7.28368
H         12.14501       11.47601        9.04596
H         10.70550       10.54738        8.45914
H         11.52672       11.75109        7.38849
N          7.87316       13.99775       10.43185
C          7.12824       15.12518       10.99715
C          6.51309       14.74621       12.35464
O          6.07515       15.63436       13.07169
C          6.07814       15.67931        9.97505
C          6.70714       16.00548        8.58462
C          5.34014       16.92702       10.50405
C          7.84431       17.03389        8.60217
H          7.50980       13.52099        9.59717
H          7.85867       15.94388       11.18002
H          5.31056       14.89328        9.79961
H          5.90689       16.37891        7.90881
H          7.10085       15.08192        8.11487
H          6.05243       17.74017       10.75636
H          4.62558       17.30260        9.74106
H          4.73690       16.69436       11.40206
H          8.20669       17.19520        7.56486
H          7.50394       18.01045        9.00047
H          8.70126       16.66738        9.20174
N          6.48723       13.45129       12.79568
C          5.98671       13.05739       14.11408
C          4.47976       13.29397       14.22583
O          3.84145       13.63250       13.23791
C          6.35697       11.56437       14.38548
C          7.87793       11.35285       14.39911
O          5.87012       11.13164       15.62997
H          6.85828       12.71216       12.18494
H          6.49443       13.68171       14.88319
H          5.93369       10.93200       13.56704
H          5.06597       10.57423       15.45888
H          8.34077       11.96203       15.20523
H          8.10480       10.28311       14.59251
H          8.35045       11.62791       13.43506
N          3.85198       13.13590       15.42783
C          2.41957       13.31241       15.64499
C          2.14148       14.39328       16.68757
O          0.98694       14.55753       17.05763
C          1.77952       11.96056       16.05886
C          2.28061       11.41925       17.40604
O          2.02403       11.01306       15.05066
H          4.41855       12.87953       16.24776
H          1.91122       13.62061       14.70426
H          0.67930       12.13097       16.14337
H          1.31278       10.32341       15.11987
H          3.36713       11.20299       17.37696
H          2.07382       12.14343       18.22176
H          1.74791       10.47452       17.64527
N          3.13382       15.18908       17.18864
C          2.88499       16.20115       18.20644
C          3.95172       17.28548       18.22002
O          5.13781       16.99622       18.14573
C          2.77489       15.60200       19.63071
C          3.99868       14.75816       20.05809
C          4.22181       14.74589       21.57919
C          3.04816       14.21952       22.41058
N          3.37190       14.29329       23.83738
H          4.08714       15.11237       16.80860
H          1.92319       16.71533       17.98411
H          1.86016       14.98064       19.74334
H          2.66350       16.47254       20.31614
H          4.93468       15.19135       19.66187
H          3.90954       13.73421       19.63408
H          4.43775       15.78971       21.89996
H          5.12421       14.13198       21.79319
H          2.82962       13.16688       22.12927
H          2.14346       14.83635       22.21830
H          4.20837       13.70198       24.04968
H          3.57051       15.28425       24.11087
H          2.55984       13.94869       24.39738
N          3.57236       18.57040       18.46460
C          4.51923       19.64370       18.71842
C          5.41887       19.91052       17.51479
O          6.62606       19.83151       17.69334
C          3.77485       20.89022       19.24900
C          4.73167       21.98946       19.72594
C          3.96806       23.11671       20.36047
O          3.15339       23.75331       19.71141
O          4.17720       23.42734       21.65441
H          2.56555       18.77381       18.56615
H          5.16594       19.31844       19.56664
H          3.17177       20.56664       20.12797
H          3.06869       21.29815       18.50419
H          5.32566       22.38047       18.87315
H          5.42918       21.56315       20.48006
N          4.97174       20.20061       16.25760
C          3.58285       20.26631       15.85822
H          3.05621       21.08424       16.37886
H          3.52148       20.47966       14.76986
H          3.08006       19.29477       16.03938
H          5.67609       20.35422       15.51885
Ca        12.84360       23.50940        6.93855
O         14.47481       23.96615       10.06652
H         14.53821       23.23417       10.72973
H         15.31021       23.89403        9.54006

Ca 1.0



