%chk=apoCaM-CA-Ng.loop4.water4.frame778.chk
%nprocshared=20
%mem=10GB
%nosave
#b3lyp/svp scf=(tight,noincore,xqc) Test 
#IOP(5/87=12) Density=Current Pop=(MK,readradii) iop(6/33=2) iop(6/42=6)

apoCaM-CA-Ng.loop4.water4.frame778 

   -3  1 
C         95.25302       78.85853       -5.01088
C         95.61123       77.41792       -5.22516
O         95.52627       76.93087       -6.34271
H         94.43083       78.92901       -4.26959
H         96.13904       79.40556       -4.62358
H         94.91416       79.33429       -5.95429
N         96.02242       76.67239       -4.16499
C         96.37948       75.25819       -4.21790
C         97.59780       75.04452       -5.10325
O         97.62151       74.12548       -5.91138
C         95.16484       74.39265       -4.64227
C         93.92435       74.65424       -3.82338
O         92.76219       74.08084       -4.18087
O         93.93668       75.42467       -2.87560
H         96.08238       77.13415       -3.24358
H         96.67609       74.95968       -3.18700
H         95.42061       73.31266       -4.58427
H         94.91282       74.62261       -5.69820
N         98.65397       75.89959       -5.00551
C         99.87806       75.75643       -5.79617
C        100.66654       74.53733       -5.31492
O        100.36570       74.05472       -4.23106
C        100.74050       77.06588       -5.72149
C        101.18394       77.40856       -4.26376
C         99.97024       78.22749       -6.38163
C        102.06059       78.65710       -4.14834
H         98.54744       76.69896       -4.36891
H         99.57262       75.59668       -6.85334
H        101.65609       76.91753       -6.32697
H        101.76542       76.55507       -3.85578
H        100.31445       77.57431       -3.59785
H         99.69684       77.95544       -7.42340
H         99.04287       78.47377       -5.82384
H        100.59662       79.13956       -6.44834
H        102.97584       78.55159       -4.76576
H        101.50515       79.56833       -4.45190
H        102.35803       78.79701       -3.08666
N        101.70213       73.96409       -6.00038
C        102.17165       74.30166       -7.34087
C        102.18430       73.03533       -8.19147
O        102.72553       72.03120       -7.74556
C        103.61083       74.85719       -7.25264
C        104.17170       75.33645       -8.57457
O        105.42309       75.82922       -8.61728
O        103.51215       75.30285       -9.60207
H        102.19825       73.19246       -5.52523
H        101.54091       75.08348       -7.81155
H        104.28471       74.07523       -6.84033
H        103.62672       75.72193       -6.55829
N        101.69679       73.03029       -9.46231
C        101.82350       71.85756      -10.31720
C        101.51074       72.20472      -11.74834
O        102.38222       72.07612      -12.59767
H        101.30552       73.90340       -9.84874
H        101.15806       71.04576       -9.95129
H        102.87489       71.49356      -10.28336
N        100.28369       72.68083      -12.08336
C         99.94002       73.10822      -13.43333
C        100.86725       74.21041      -13.91626
O        101.43333       74.06195      -14.99129
C         98.44952       73.51489      -13.54678
C         98.00638       74.67951      -12.69287
O         98.10955       74.63337      -11.35183
O         97.48603       75.65306      -13.21272
H         99.57705       72.74048      -11.33789
H        100.05815       72.23788      -14.11979
H         97.83133       72.63534      -13.26920
H         98.23689       73.74829      -14.61530
N        101.10800       75.32734      -13.16831
C        101.95634       76.40268      -13.65657
C        101.29097       77.17765      -14.77630
O        101.97445       77.94791      -15.43455
H        100.70073       75.41060      -12.22576
H        102.92202       75.96750      -13.99937
H        102.18454       77.12320      -12.84222
N         99.94706       77.06486      -15.01590
C         99.22840       77.74917      -16.08420
C         99.25170       79.26871      -15.93601
O         98.85053       79.95601      -16.86387
C         99.69219       77.19965      -17.45209
C         99.34707       75.69491      -17.53089
C         99.83129       75.04560      -18.79658
N        100.68331       73.99339      -18.74333
O         99.43703       75.45418      -19.87814
H         99.38444       76.45533      -14.41781
H         98.14784       77.48993      -16.01484
H        100.78212       77.35900      -17.58869
H         99.15695       77.72256      -18.27434
H         98.24381       75.56762      -17.46565
H         99.79344       75.16276      -16.66735
H        101.01632       73.62500      -17.83959
H        101.00643       73.53510      -19.60743
N         99.58260       79.85081      -14.74396
C         99.49781       81.28485      -14.46747
C         98.49803       81.58077      -13.34376
O         98.37135       82.73982      -12.97045
C        100.90311       81.83100      -14.07047
C        101.46043       81.18748      -12.78272
C        101.90646       81.65631      -15.21644
H         99.86945       79.24844      -13.96209
H         99.15375       81.83992      -15.36760
H        100.80669       82.92368      -13.88243
H        101.63515       80.09889      -12.90748
H        102.43003       81.65540      -12.51186
H        100.76595       81.34120      -11.93018
H        101.53652       82.16789      -16.12965
H        102.88464       82.10354      -14.93853
H        102.06434       80.58282      -15.44607
N         97.80419       80.58542      -12.71827
C         97.03195       80.76534      -11.49299
C         95.58694       80.31753      -11.70860
O         95.26060       79.93015      -12.82427
C         97.80249       79.95065      -10.42872
C         97.32471       80.07802       -9.01477
N         97.01086       78.97433       -8.30199
O         97.26248       81.17999       -8.48991
H         97.88750       79.61513      -13.05444
H         97.02013       81.83254      -11.17959
H         98.85249       80.31848      -10.42575
H         97.82564       78.88074      -10.73314
H         97.07861       78.03305       -8.71661
H         96.72790       79.06215       -7.32022
N         94.66180       80.33342      -10.69821
C         93.28507       79.87137      -10.88263
C         92.28290       80.90515      -10.38404
O         92.69136       81.86867       -9.74749
C         93.11790       78.54956      -10.09659
C         91.95024       77.71670      -10.56157
C         90.86854       77.42616       -9.71491
C         91.96407       77.18787      -11.86351
C         89.81664       76.62116      -10.16930
C         90.91841       76.38145      -12.31278
C         89.84179       76.09340      -11.47027
O         88.84415       75.30617      -11.92023
H         94.94584       80.63268       -9.75518
H         93.10408       79.68930      -11.96219
H         93.06742       78.77669       -9.00702
H         94.01696       77.91350      -10.25142
H         90.83787       77.81929       -8.70869
H         92.79607       77.38842      -12.52742
H         88.98667       76.40282       -9.50929
H         90.95100       75.97491      -13.31585
H         88.08376       75.07162      -11.37018
N         90.94357       80.75185      -10.60961
C         89.93149       81.60469       -9.99619
C         88.95711       80.71163       -9.23034
O         88.09571       80.11471       -9.86138
C         89.20316       82.47775      -11.03581
C         90.16747       83.47073      -11.70426
C         89.44747       84.36585      -12.67013
O         88.87508       83.89374      -13.63930
O         89.44186       85.69913      -12.47759
H         90.62070       79.97639      -11.20741
H         90.40842       82.32061       -9.30428
H         88.41112       83.06223      -10.51456
H         88.72096       81.83565      -11.80507
H         90.96661       82.92325      -12.24745
H         90.64274       84.10112      -10.91997
N         89.07082       80.46778       -7.88906
C         90.13338       81.03057       -7.06277
C         89.91700       82.51675       -6.84450
O         88.84025       83.02335       -7.13244
C         90.26070       80.29477       -5.71059
C         90.62969       78.81309       -5.90492
C         90.84667       78.12772       -4.58774
O         91.92997       77.62848       -4.32834
O         89.84520       78.04743       -3.69122
H         88.41265       79.79428       -7.46616
H         91.09650       80.88218       -7.59880
H         89.31126       80.38216       -5.13683
H         91.07316       80.77203       -5.11983
H         91.56409       78.74743       -6.50555
H         89.82433       78.27737       -6.44943
N         90.94310       83.28735       -6.38987
C         90.84763       84.72238       -6.21642
H         91.57027       85.21968       -6.89768
H         89.83298       85.11197       -6.44399
H         91.09979       84.98449       -5.16884
H         91.85330       82.84448       -6.19366
Ca        90.89057       74.80967       -3.14923
O         92.01827       73.73770       -0.57233
H         91.19971       73.33869       -0.18354
H         92.38791       73.02766       -1.15537
O         88.71963       75.24022       -5.28144
H         89.42739       75.08956       -5.95740
H         88.42729       76.17405       -5.43169
O         89.16953       75.91469       -0.85862
H         88.74152       75.08533       -0.52776
H         88.48945       76.32716       -1.44845
O         89.30987       72.37340       -3.41385
H         89.83450       72.05287       -2.63742
H         89.81430       72.05326       -4.20352

Ca 1.0



