%chk=apoCaM-CA-Ng.loop4.water3.frame331.chk
%nprocshared=20
%mem=10GB
%nosave
#b3lyp/svp scf=(tight,noincore,xqc) Test 
#IOP(5/87=12) Density=Current Pop=(MK,readradii) iop(6/33=2) iop(6/42=6)

apoCaM-CA-Ng.loop4.water3.frame331 

   -3  1 
C         66.49118       47.47515       56.71491
C         67.01994       46.45619       55.75742
O         67.92676       45.72485       56.11937
H         65.41137       47.28041       56.89095
H         67.02382       47.41178       57.68792
H         66.62055       48.48952       56.28804
N         66.46568       46.34540       54.51618
C         66.79087       45.32629       53.52194
C         66.30345       43.91638       53.99616
O         66.75468       43.62498       55.28887
C         68.19695       45.49944       52.88560
C         69.41778       45.26554       53.72049
O         70.00495       44.05669       53.68800
O         70.06442       46.22032       54.12314
H         65.71069       47.00351       54.26912
H         66.15829       45.54549       52.63138
H         68.24688       46.54556       52.50447
H         68.27862       44.85269       51.98403
N         64.82179       43.98373       54.04874
C         64.02335       42.81677       54.49489
C         64.11698       41.67759       53.49406
O         63.10476       41.35161       52.88835
C         64.26859       42.39305       55.97842
C         63.28844       41.28564       56.46295
C         64.18224       43.61612       56.91875
C         61.80698       41.68619       56.50930
H         64.45075       44.27076       53.11232
H         62.97189       43.17551       54.47048
H         65.28279       41.95215       56.07025
H         63.58433       40.98224       57.49145
H         63.38621       40.39096       55.81396
H         64.34680       43.30551       57.97045
H         64.94471       44.38017       56.67546
H         63.19736       44.11856       56.84166
H         61.63899       42.53561       57.20278
H         61.42432       41.94963       55.50330
H         61.20832       40.83067       56.88542
N         65.30044       41.06059       53.22421
C         65.42816       40.04740       52.18550
C         64.62272       38.79353       52.50953
O         63.80068       38.43783       51.67626
C         66.90836       39.76205       51.85076
C         67.57115       40.99837       51.29471
O         67.14788       41.51723       50.27314
O         68.63340       41.53932       51.91685
H         66.14725       41.35738       53.72938
H         65.00639       40.46217       51.23954
H         66.96582       38.97118       51.07117
H         67.47095       39.41960       52.73754
N         64.73404       38.05264       53.65230
C         65.64095       38.32646       54.76140
C         65.50040       37.30007       55.88777
O         64.54224       36.54011       55.86796
H         64.11908       37.22696       53.70638
H         65.44638       39.33397       55.18235
H         66.64851       38.29085       54.35692
N         66.36946       37.18278       56.93977
C         67.61422       37.90537       57.16701
C         67.36950       39.39775       57.27490
O         67.71853       40.11704       56.35031
C         68.70465       37.48003       56.14443
C         70.06715       38.00874       56.50252
O         70.62195       37.70322       57.69070
O         70.69409       38.68548       55.70449
H         66.13001       36.47672       57.64853
H         68.03284       37.56605       58.13878
H         68.47757       37.78916       55.11349
H         68.77348       36.37117       56.15027
N         66.82848       39.98431       58.38445
C         66.48994       39.32507       59.63916
C         65.17896       38.58285       59.61683
O         64.51819       38.53129       58.58962
H         66.74747       41.00664       58.37780
H         66.35874       40.11462       60.41011
H         67.32541       38.67996       59.98133
N         64.71293       38.03116       60.77709
C         63.43200       37.34217       60.88356
C         62.43354       38.13695       61.72282
O         61.28658       37.71817       61.79582
C         63.60570       35.93505       61.50221
C         64.56563       34.99773       60.74701
C         66.01585       35.40227       60.85781
N         66.62630       35.48424       62.06268
O         66.65560       35.63967       59.84725
H         65.28145       38.13359       61.63298
H         62.97879       37.23268       59.87395
H         62.60642       35.44641       61.50529
H         63.93262       36.02289       62.56124
H         64.25153       34.93520       59.68173
H         64.47944       33.98208       61.18909
H         66.11838       35.27235       62.93300
H         67.61818       35.75661       62.12282
N         62.78283       39.28589       62.37618
C         61.84530       40.09551       63.15200
C         62.19323       40.12884       64.63554
O         61.42906       40.73507       65.37588
C         61.73489       41.52968       62.55233
C         60.99785       41.49536       61.20676
C         63.09739       42.22671       62.38376
H         63.75502       39.61452       62.33310
H         60.82688       39.64845       63.12539
H         61.11305       42.14903       63.23657
H         61.54660       40.88033       60.46297
H         59.98103       41.06811       61.34625
H         60.87921       42.52523       60.80708
H         62.94555       43.26604       62.02395
H         63.64690       42.26404       63.34720
H         63.72634       41.71012       61.62728
N         63.27409       39.47784       65.16180
C         63.53598       39.41337       66.59667
C         64.83365       40.10948       66.97927
O         65.09200       40.18236       68.17175
C         63.54324       37.92284       67.01924
C         63.75069       37.68950       68.49873
N         62.86912       38.15913       69.41195
O         64.72513       37.05485       68.87451
H         63.92085       38.96947       64.54130
H         62.72965       39.93163       67.16012
H         64.34826       37.40119       66.45464
H         62.57285       37.46063       66.73547
H         62.03387       38.68588       69.12029
H         63.02043       37.98808       70.41773
N         65.68568       40.67184       66.06383
C         66.93243       41.31544       66.47540
C         67.65837       42.02453       65.34074
O         67.78647       41.49162       64.24865
C         67.89984       40.32487       67.19487
C         68.23524       39.05779       66.43034
C         69.05266       39.07452       65.28667
C         67.74573       37.82148       66.89011
C         69.34931       37.89182       64.60454
C         68.04701       36.63807       66.21045
C         68.84554       36.66843       65.06418
O         69.12908       35.51879       64.42002
H         65.44843       40.65370       65.06240
H         66.67919       42.09899       67.22413
H         67.43504       40.03343       68.15638
H         68.83941       40.84493       67.48316
H         69.48128       39.99200       64.92281
H         67.12683       37.77065       67.77626
H         69.97751       37.92828       63.72323
H         67.66025       35.69608       66.57783
H         69.68051       35.49804       63.62480
N         68.30302       43.19350       65.62918
C         69.34301       43.82281       64.82066
C         68.88463       44.42635       63.49586
O         69.70966       45.05779       62.85084
C         70.53554       42.84329       64.69982
C         71.86239       43.51662       64.31795
C         72.99326       42.53025       64.38991
O         73.66624       42.29155       63.40051
O         73.28100       41.91563       65.55436
H         68.16421       43.60290       66.56618
H         69.70905       44.68384       65.42616
H         70.29915       42.02268       63.99047
H         70.68915       42.39891       65.70979
H         72.08037       44.33842       65.03472
H         71.80771       43.93980       63.29540
N         67.58935       44.38073       63.06393
C         67.13024       45.18936       61.93583
C         66.58353       46.52025       62.42440
O         66.25034       47.34505       61.58383
C         66.03960       44.45798       61.12728
C         66.49825       43.19238       60.39597
C         67.47115       43.50433       59.28835
O         68.71708       43.93111       59.56171
O         67.13362       43.36427       58.12572
H         66.87520       43.92494       63.64862
H         67.97741       45.45605       61.27181
H         65.61853       45.14236       60.35615
H         65.21561       44.19427       61.82355
H         65.58575       42.74144       59.94640
H         66.92950       42.44726       61.09659
N         66.47404       46.81570       63.75342
C         65.98218       48.08335       64.24676
H         65.07026       47.90723       64.85333
H         66.76022       48.54881       64.88685
H         65.73266       48.79044       63.42866
H         66.74121       46.12604       64.46902
Ca        68.87188       42.96697       55.79904
O         70.84319       45.17492       57.29865
H         71.54127       45.70758       56.84116
H         70.21122       45.84896       57.65457
O         70.61564       41.60590       58.01784
H         70.44966       40.67112       57.73886
H         70.44669       41.60598       58.99323
O         70.34260       41.13448       54.35084
H         69.45657       40.70781       54.46918
H         70.63756       40.84727       53.45261

Ca 1.0



