%chk=apoCaM-CA-Ng.loop3.water6.frame27.chk
%nprocshared=20
%mem=10GB
%nosave
#b3lyp/svp scf=(tight,noincore,xqc) Test 
#IOP(5/87=12) Density=Current Pop=(MK,readradii) iop(6/33=2) iop(6/42=6)

apoCaM-CA-Ng.loop3.water6.frame27 

   0  1 
C         77.92071       78.78654       43.48542
C         78.18155       80.14841       44.05709
O         78.53368       81.03660       43.29635
H         77.11312       78.85096       42.72636
H         78.84415       78.40695       42.99889
H         77.61268       78.06641       44.27126
N         78.02442       80.39121       45.39411
C         78.26256       81.68663       46.03160
C         79.74015       82.09256       46.02082
O         80.03753       83.22455       46.36852
C         77.34496       82.77984       45.43054
C         75.89497       82.38965       45.53473
O         75.21204       82.28490       44.52836
O         75.34207       82.15608       46.74076
H         77.70268       79.62017       45.99911
H         77.98724       81.60778       47.10715
H         77.60373       82.97987       44.37063
H         77.48365       83.73068       45.98795
N         80.72311       81.19371       45.71257
C         82.15412       81.50268       45.70518
C         82.76180       81.20097       44.33968
O         83.98373       81.20258       44.22386
C         82.87067       80.64747       46.77125
C         82.43604       80.97962       48.20508
C         83.29844       80.19763       49.20645
C         82.95470       80.55352       50.65707
N         83.82852       79.83536       51.58570
H         80.46721       80.22154       45.49285
H         82.35427       82.57077       45.93986
H         83.96158       80.85829       46.70446
H         82.71145       79.56520       46.56678
H         81.36134       80.73319       48.34862
H         82.58143       82.06803       48.38270
H         84.36840       80.44700       49.03021
H         83.15748       79.10589       49.04788
H         81.89406       80.29166       50.86615
H         83.08543       81.64809       50.81042
H         83.58208       80.10096       52.56626
H         83.70644       78.80293       51.47144
H         84.82775       80.09168       51.40975
N         81.98319       80.95137       43.25466
C         82.48845       80.53354       41.96091
C         82.31258       81.66066       40.96848
O         81.21157       82.18303       40.84040
C         81.71341       79.26865       41.52957
C         82.18669       78.63862       40.24624
O         81.54529       77.55331       39.77619
O         83.14780       79.07659       39.63503
H         80.96375       81.05840       43.33166
H         83.56771       80.26631       42.02575
H         80.63621       79.52307       41.42165
H         81.80689       78.49991       42.32727
N         83.36380       82.06127       40.19987
C         83.28395       83.09881       39.18661
C         82.15912       82.82763       38.22391
O         81.34947       83.71628       38.00088
H         84.26691       81.57088       40.29805
H         84.24367       83.12576       38.62883
H         83.13405       84.09119       39.66524
N         82.00360       81.58957       37.67452
C         80.87220       81.24428       36.82419
C         79.57786       81.56500       37.54745
O         78.83672       82.40301       37.05144
C         80.91940       79.75777       36.41220
C         82.16247       79.43022       35.62437
N         82.40381       80.01500       34.42817
O         82.95886       78.62073       36.07115
H         82.68927       80.86044       37.91240
H         80.91793       81.86713       35.90347
H         80.03624       79.51669       35.78805
H         80.88408       79.11805       37.32174
H         81.73774       80.68907       34.02494
H         83.25642       79.78407       33.89668
N         79.25185       80.97189       38.73430
C         78.06215       81.33983       39.48563
C         77.05686       80.23033       39.40046
O         77.28937       79.17018       39.95988
H         79.86125       80.23444       39.11821
H         77.61268       82.26319       39.06482
H         78.32095       81.57860       40.53880
N         75.91919       80.42468       38.67165
C         74.90529       79.43182       38.33929
C         75.36015       78.46078       37.25417
O         74.57470       78.25662       36.34111
C         74.25513       78.73189       39.54928
C         73.03186       77.95708       39.08856
C         71.93952       78.63364       38.50709
C         72.97942       76.55867       39.20191
C         70.83553       77.92519       38.02926
C         71.87176       75.85069       38.72091
C         70.79878       76.53271       38.12759
O         69.73119       75.86362       37.64757
H         75.76387       81.36359       38.27182
H         74.09065       80.02032       37.86146
H         73.93119       79.48812       40.29648
H         74.99581       78.05922       40.03057
H         71.94142       79.71188       38.40989
H         73.80055       76.01329       39.64694
H         70.01125       78.46090       37.57391
H         71.85201       74.77168       38.80252
H         69.66843       74.89881       37.68385
N         76.57108       77.81801       37.28096
C         77.10473       76.94595       36.23352
C         77.61124       77.76566       35.03894
O         78.77323       77.59536       34.69492
C         76.17795       75.73410       35.92189
C         75.87954       74.98313       37.25240
C         76.85907       74.79200       34.90913
C         74.90040       73.81814       37.12508
H         77.18531       77.93509       38.08667
H         78.03107       76.48053       36.65009
H         75.22688       76.08842       35.47555
H         75.42902       75.69118       37.97509
H         76.82787       74.60764       37.69785
H         76.20256       73.93766       34.65067
H         77.07701       75.32470       33.96233
H         77.81397       74.39747       35.32030
H         75.30904       73.01114       36.48547
H         74.71926       73.38719       38.13353
H         73.93266       74.17381       36.71436
N         76.86885       78.73373       34.41945
C         77.43637       79.63254       33.42101
C         77.65794       78.95528       32.08456
O         78.30578       79.55751       31.23963
C         76.54356       80.87448       33.23632
O         76.31181       81.51282       34.46518
H         75.91675       78.92798       34.72048
H         78.41615       79.99287       33.81021
H         75.56264       80.56678       32.81513
H         77.00454       81.59526       32.52423
H         77.19120       81.83082       34.79785
N         77.16779       77.70633       31.81826
C         77.44449       76.96915       30.59288
C         78.94291       76.78553       30.47731
O         79.54907       77.17985       29.49018
C         76.80627       77.65141       29.37277
H         76.60653       77.21766       32.52946
H         76.98251       75.96048       30.68131
H         77.22427       78.66325       29.19648
H         76.97887       77.03847       28.46299
H         75.71022       77.74480       29.52836
N         79.60854       76.23649       31.52947
C         81.05607       76.22326       31.63963
C         81.48771       75.09368       32.54331
O         80.99956       75.01802       33.66283
C         81.52666       77.55281       32.23971
H         79.05716       75.98610       32.36554
H         81.52721       76.11598       30.63774
H         82.63411       77.55949       32.33226
H         81.22528       78.39880       31.58676
H         81.08452       77.71093       33.24659
N         82.43157       74.19564       32.13312
C         82.96219       73.12704       32.97767
C         81.93202       72.04257       33.27622
O         82.24992       71.13883       34.03806
C         83.57540       73.70236       34.28027
C         84.63584       74.77948       33.99732
C         85.14043       75.36095       35.28274
O         85.69731       74.65253       36.10539
O         84.94001       76.66609       35.54584
H         82.84205       74.30338       31.19334
H         83.78936       72.62470       32.42872
H         84.04548       72.87789       34.85992
H         82.78476       74.13687       34.92518
H         84.18484       75.60283       33.40272
H         85.48030       74.34863       33.41837
N         80.70166       72.02218       32.68540
C         79.74100       70.97416       32.95452
H         78.82925       71.12824       32.33872
H         80.17571       69.98402       32.69856
H         79.45456       70.98905       34.02713
H         80.43191       72.74398       32.00326
Ca        85.39602       77.54385       37.57680
O         82.74973       75.70311       37.42888
H         82.29976       75.45592       38.27469
H         82.05007       76.15866       36.89667
O         84.72319       76.48758       40.61230
H         83.80655       76.12612       40.70635
H         85.30557       75.68763       40.62636
O         85.23380       80.66022       37.21201
H         84.80473       81.28144       36.57166
H         85.73839       81.24712       37.82882
O         86.38697       79.25084       39.92639
H         86.37046       78.95885       40.87209
H         86.78355       80.15750       39.95219
O         87.97672       78.84200       36.72872
H         88.12730       77.92096       36.39779
H         87.26918       79.20282       36.13749
O         87.46862       75.60289       38.57472
H         87.98277       74.95002       39.11160
H         86.55591       75.22180       38.53567

Ca 1.0



