%chk=apoCaM-CA-Ng.loop2.water3.frame126.chk
%nprocshared=20
%mem=10GB
%nosave
#b3lyp/svp scf=(tight,noincore,xqc) Test 
#IOP(5/87=12) Density=Current Pop=(MK,readradii) iop(6/33=2) iop(6/42=6)

apoCaM-CA-Ng.loop2.water3.frame126 

   -2  1 
C         39.27317       36.96969       -4.12551
C         38.74551       35.98337       -5.12214
O         38.84816       36.22434       -6.31721
H         39.74533       37.83420       -4.63918
H         38.43400       37.34102       -3.50028
H         40.02706       36.48116       -3.47383
N         38.16101       34.82964       -4.69332
C         37.61071       33.84064       -5.61479
C         36.35490       34.32965       -6.33881
O         35.86697       33.58293       -7.16963
C         37.37105       32.48922       -4.89825
C         36.35728       32.50265       -3.78310
O         35.68889       33.62376       -3.45061
O         36.14105       31.47279       -3.16431
H         38.14445       34.64057       -3.67907
H         38.38553       33.62892       -6.38539
H         38.34275       32.14999       -4.47644
H         37.05163       31.73418       -5.64975
N         35.77685       35.54331       -6.06491
C         34.60487       36.13166       -6.71622
C         34.86224       36.59462       -8.14745
O         34.80120       37.79323       -8.37430
C         33.36256       35.23859       -6.61955
H         36.17259       36.11491       -5.30676
H         34.35912       37.05545       -6.14029
H         33.15282       34.99416       -5.55689
H         32.48270       35.77984       -7.03153
H         33.48124       34.29666       -7.19053
N         35.09415       35.72401       -9.17096
C         35.20601       36.12430      -10.57180
C         36.56210       35.78274      -11.17916
O         36.66500       35.73957      -12.39786
C         34.03029       35.49795      -11.36148
C         34.01459       33.98835      -11.43465
O         33.09269       33.43164      -12.00832
O         34.99680       33.23993      -10.89515
H         35.12464       34.72316       -8.97358
H         35.09277       37.22330      -10.68202
H         34.03671       35.89190      -12.40072
H         33.08369       35.83088      -10.88186
N         37.66712       35.60459      -10.39926
C         38.98458       35.29099      -10.93360
C         39.47537       36.32964      -11.91829
O         39.79674       35.96892      -13.04229
H         37.58574       35.69973       -9.37617
H         38.95379       34.29447      -11.42696
H         39.70880       35.23365      -10.09289
N         39.54409       37.64551      -11.57277
C         39.98578       38.68141      -12.50863
C         41.50845       38.72714      -12.58970
O         42.16525       37.98692      -11.87028
C         39.36879       40.03893      -12.11394
C         37.85662       39.96130      -12.13769
N         37.18993       39.69536      -13.28739
O         37.22824       40.13449      -11.10531
H         39.21315       37.92202      -10.63501
H         39.60809       38.43552      -13.52521
H         39.68443       40.83644      -12.81905
H         39.71849       40.31795      -11.09504
H         37.69439       39.55244      -14.17415
H         36.16065       39.63424      -13.29410
N         42.13715       39.54849      -13.48562
C         43.58219       39.55103      -13.69239
C         44.18058       40.92039      -13.47066
O         43.79373       41.85385      -14.15866
H         41.56637       40.15972      -14.08872
H         43.78982       39.24800      -14.74033
H         44.08413       38.81239      -13.03304
N         45.13931       41.10638      -12.51550
C         45.75432       42.40214      -12.22154
C         45.25262       42.95634      -10.89088
O         45.61397       44.07205      -10.54220
C         47.30345       42.30321      -12.27418
C         47.92102       41.43155      -11.16505
O         47.72436       41.85942      -13.54065
H         45.41288       40.29868      -11.93692
H         45.44587       43.14424      -12.99002
H         47.71506       43.32644      -12.13187
H         47.49407       40.89632      -13.61901
H         47.57703       40.37924      -11.22925
H         49.02785       41.43868      -11.25856
H         47.66151       41.83467      -10.16499
N         44.38044       42.24678      -10.12219
C         43.72145       42.73027       -8.91527
C         42.21802       42.70787       -9.16334
O         41.81333       42.38335      -10.27525
C         44.13678       41.85973       -7.68896
C         43.84690       40.35031       -7.91437
C         45.61712       42.11719       -7.35636
C         44.05401       39.49301       -6.66732
H         44.09836       41.30632      -10.42675
H         43.99510       43.78504       -8.69372
H         43.55304       42.20269       -6.80952
H         44.49586       39.94675       -8.72096
H         42.78643       40.22466       -8.22101
H         45.92011       41.59464       -6.42775
H         46.27397       41.78671       -8.18633
H         45.78256       43.20272       -7.18214
H         43.38973       39.84261       -5.84940
H         43.79996       38.43837       -6.90540
H         45.10830       39.51573       -6.32699
N         41.32057       43.01445       -8.18131
C         39.88130       42.96453       -8.41191
C         39.24242       44.29012       -8.00364
O         38.19795       44.30678       -7.37246
C         39.33561       41.72325       -7.67698
C         37.93396       41.33491       -8.04725
O         37.40424       40.21859       -7.51315
O         37.28592       41.98542       -8.85148
H         41.65441       43.25086       -7.23495
H         39.68207       42.82337       -9.49663
H         39.42381       41.86869       -6.57843
H         39.97261       40.85508       -7.95682
N         39.87790       45.45393       -8.31598
C         39.41746       46.80209       -7.96498
C         39.05783       46.94471       -6.48209
O         39.89959       46.67847       -5.64308
C         40.45706       47.86789       -8.42712
C         41.91811       47.47485       -8.22732
C         42.53217       47.38875       -6.96324
C         42.67860       47.14303       -9.36797
C         43.86107       46.95626       -6.85028
C         43.99904       46.71339       -9.24955
C         44.59029       46.61293       -7.99153
H         40.76563       45.35765       -8.82472
H         38.49995       46.99209       -8.54971
H         40.23293       48.87179       -8.00505
H         40.29546       47.95811       -9.52296
H         42.00218       47.64967       -6.06273
H         42.24060       47.19155      -10.35718
H         44.32732       46.88110       -5.87635
H         44.55686       46.44957      -10.13767
H         45.61311       46.26939       -7.90416
N         37.81145       47.36773       -6.07716
C         37.36125       47.46353       -4.68995
C         37.49661       46.16268       -3.91907
O         37.96430       46.18537       -2.78962
C         35.87124       47.82492       -4.81701
C         35.86438       48.66010       -6.06997
C         36.77652       47.84478       -6.97781
H         37.91089       48.28934       -4.18424
H         35.26771       46.91762       -5.05111
H         35.43722       48.31152       -3.91687
H         34.86371       48.88188       -6.49790
H         36.37257       49.62414       -5.83287
H         36.25783       46.96829       -7.42642
H         37.15475       48.53694       -7.76055
N         37.10583       44.98339       -4.48578
C         37.15199       43.69075       -3.79769
C         38.55910       43.30314       -3.34800
O         38.68087       42.37032       -2.56550
C         36.64309       42.55955       -4.71975
C         35.20036       42.72807       -5.22372
C         34.91097       41.67082       -6.24829
O         34.94617       40.48732       -5.94954
O         34.68834       42.03360       -7.52579
H         36.75253       45.02448       -5.45046
H         36.50355       43.76494       -2.89700
H         36.71570       41.58140       -4.19386
H         37.32085       42.52657       -5.59796
H         35.07172       43.70915       -5.72168
H         34.47848       42.66755       -4.38284
N         39.66788       43.93411       -3.82118
C         41.00624       43.58322       -3.40475
H         41.74365       44.22418       -3.93528
H         41.11651       43.74670       -2.31203
H         41.21586       42.52163       -3.65183
H         39.57239       44.67399       -4.51855
Ca        34.68266       40.49510       -9.17495
O         33.16480       39.13972      -11.28081
H         33.71513       38.79020      -12.02582
H         32.79951       38.33496      -10.83528
O         34.47197       42.28582      -11.62197
H         35.26869       42.01417      -12.14295
H         33.74103       41.71799      -11.97320
O         31.87513       41.29849       -9.33653
H         32.30502       42.08740       -8.92015
H         31.63618       40.71472       -8.57328

Ca 1.0



