%chk=apoCaM-CA-Ng.loop2.water5.frame344.chk
%nprocshared=20
%mem=10GB
%nosave
#b3lyp/svp scf=(tight,noincore,xqc) Test 
#IOP(5/87=12) Density=Current Pop=(MK,readradii) iop(6/33=2) iop(6/42=6)

apoCaM-CA-Ng.loop2.water5.frame344 

   -2  1 
C         61.44578       93.33536       62.63244
C         61.21815       94.45377       63.60951
O         61.50287       94.27443       64.78484
H         62.51981       93.05526       62.62872
H         60.84498       92.45143       62.92725
H         61.15228       93.62799       61.60247
N         60.70495       95.64671       63.19206
C         60.45945       96.76963       64.09321
C         59.44911       96.36107       65.15004
O         58.35261       95.94564       64.79888
C         59.95941       97.99036       63.29044
C         59.79236       99.24351       64.11376
O         59.41262      100.26813       63.57083
O         60.06994       99.26278       65.43242
H         60.48664       95.75911       62.18964
H         61.42553       97.05437       64.56750
H         58.99087       97.74280       62.80372
H         60.70238       98.21509       62.49392
N         59.77043       96.42957       66.47352
C         58.89026       95.93332       67.52410
C         58.73297       94.43804       67.34720
O         59.74618       93.76303       67.25561
C         59.47824       96.23884       68.90585
H         60.68943       96.81725       66.73839
H         57.90733       96.45238       67.46677
H         60.47306       95.76127       69.03245
H         59.59069       97.33769       69.02975
H         58.79483       95.86844       69.70007
N         57.49936       93.87334       67.20640
C         57.27642       92.46883       66.85643
C         57.40282       91.52018       68.06257
O         56.43105       90.85965       68.40717
C         55.88467       92.35968       66.17951
C         55.62566       91.00147       65.59150
O         56.34987       90.56820       64.71121
O         54.57772       90.26861       66.01296
H         56.68695       94.51026       67.21586
H         58.01439       92.18040       66.07838
H         55.82625       93.09489       65.34682
H         55.09013       92.61342       66.91578
N         58.57268       91.37718       68.74715
C         58.71564       90.45608       69.86179
C         60.06031       90.63193       70.52220
O         60.31556       91.71874       71.02397
H         59.39487       91.91892       68.47513
H         58.57654       89.41524       69.49953
H         57.93890       90.66999       70.62809
N         60.97180       89.61710       70.57630
C         62.25620       89.78498       71.24784
C         63.28546       90.39732       70.31456
O         63.08579       90.44843       69.10839
C         62.80214       88.45898       71.83052
C         61.96984       87.89832       72.96308
N         60.71824       87.42231       72.76564
O         62.45378       87.85236       74.08475
H         60.75225       88.71801       70.12292
H         62.12438       90.48976       72.10049
H         63.81417       88.66453       72.24581
H         62.92281       87.69638       71.03091
H         60.28582       87.40933       71.83433
H         60.18042       87.03632       73.55581
N         64.42024       90.92185       70.85173
C         65.49617       91.52649       70.08889
C         66.36004       90.50098       69.39028
O         66.01845       89.32669       69.34615
H         64.51502       90.93249       71.87924
H         66.16482       92.02870       70.82225
H         65.11899       92.30681       69.39294
N         67.57665       90.88841       68.91299
C         68.57028       89.94061       68.41093
C         68.27059       89.43532       67.00278
O         68.90567       88.47288       66.59310
C         70.01376       90.51962       68.51554
C         70.25991       91.81175       67.71358
O         70.36412       90.72043       69.86320
H         67.84033       91.87318       69.05526
H         68.55379       89.05405       69.08558
H         70.71193       89.75163       68.11670
H         69.83448       91.48419       70.21113
H         69.64324       92.65738       68.07791
H         71.32566       92.10856       67.80375
H         70.04062       91.66759       66.64781
N         67.35887       90.04456       66.19154
C         67.04870       89.60465       64.82992
C         65.55967       89.33657       64.75651
O         64.77085       90.21939       65.06703
C         67.52760       90.67419       63.81126
C         69.07878       90.70682       63.81817
C         67.01800       90.37345       62.38734
C         69.67911       91.92105       63.11641
H         66.87329       90.88689       66.53467
H         67.58555       88.66174       64.57914
H         67.12070       91.65859       64.13305
H         69.48232       89.76933       63.37420
H         69.44257       90.74365       64.85314
H         67.34751       91.15361       61.67315
H         67.38945       89.38548       62.03919
H         65.90876       90.36488       62.35821
H         69.41941       91.94654       62.04106
H         69.32443       92.85081       63.61033
H         70.78596       91.87942       63.20511
N         65.11576       88.10057       64.39854
C         63.71518       87.69754       64.47340
C         63.63717       86.17580       64.38933
O         62.85033       85.63397       63.63317
C         62.88729       88.41409       63.37523
C         61.40332       88.17799       63.46101
O         60.86742       87.43306       64.44802
O         60.67050       88.68173       62.62527
H         65.82551       87.39336       64.15020
H         63.34474       87.97569       65.48520
H         63.25269       88.07722       62.37945
H         63.03853       89.51062       63.43971
N         64.50330       85.43179       65.13303
C         64.59782       83.97340       65.11878
C         64.69301       83.44228       63.68773
O         65.60447       83.85049       62.97993
C         65.87661       83.54392       65.88710
C         65.89252       84.04437       67.31364
C         66.78845       85.06119       67.69893
C         65.00932       83.51289       68.26583
C         66.78714       85.54515       69.00968
C         65.02264       83.98949       69.58121
C         65.90656       85.00781       69.95127
H         65.17377       85.95098       65.71655
H         63.70884       83.55726       65.63113
H         66.74968       83.97160       65.34351
H         65.99785       82.43882       65.88401
H         67.47416       85.49504       66.98084
H         64.31852       82.72606       67.99060
H         67.46763       86.33821       69.29388
H         64.34500       83.57140       70.31368
H         65.90919       85.38099       70.96716
N         63.81250       82.51814       63.18319
C         63.93920       81.93577       61.85453
C         63.36560       82.82332       60.75686
O         63.60188       82.52835       59.59356
C         63.13330       80.63670       61.97966
C         61.99536       81.06522       62.88899
C         62.73094       81.90543       63.93176
H         64.99855       81.68848       61.61982
H         62.83180       80.16804       61.01805
H         63.74037       79.90004       62.55372
H         61.33046       81.73411       62.29738
H         61.37331       80.24918       63.31299
H         62.02660       82.64493       64.37103
H         63.17605       81.26902       64.72788
N         62.53644       83.86872       61.03863
C         61.89752       84.67483       60.00346
C         62.87687       85.60377       59.29586
O         62.46552       86.23682       58.33273
C         60.74693       85.52081       60.59600
C         59.64884       84.65591       61.24001
C         58.52833       85.50810       61.75790
O         57.88467       86.20862       60.99331
O         58.21647       85.48961       63.06766
H         62.28237       84.03623       62.01596
H         61.45033       83.98497       59.25251
H         60.28238       86.11379       59.77674
H         61.15597       86.22674       61.35037
H         60.06263       84.06971       62.08639
H         59.23966       83.94526       60.49041
N         64.16562       85.76708       59.71809
C         65.10304       86.66821       59.07619
H         65.98600       86.09408       58.72703
H         64.66187       87.19445       58.20338
H         65.43641       87.43297       59.80904
H         64.51233       85.25581       60.54116
Ca        58.08684       88.35929       64.09348
O         58.48941       90.99657       62.34105
H         58.72874       91.11323       61.38743
H         58.20098       91.89592       62.63821
O         56.13133       88.95672       61.67234
H         56.78860       88.95009       60.93169
H         56.16016       88.03735       62.03867
O         55.48385       87.00552       64.90844
H         55.75186       87.45044       65.75158
H         55.97545       86.14598       64.91500
O         58.68368       88.09389       67.07596
H         59.53969       87.60122       67.14534
H         58.02211       87.50806       67.52259
O         60.12144       90.53850       65.34871
H         60.54012       90.75655       66.21865
H         59.97335       91.41705       64.91822

Ca 1.0



