%chk=apoCaM-CA-Ng.loop1.water5.frame634.chk
%nprocshared=20
%mem=10GB
%nosave
#b3lyp/svp scf=(tight,noincore,xqc) Test 
#IOP(5/87=12) Density=Current Pop=(MK,readradii) iop(6/33=2) iop(6/42=6)

apoCaM-CA-Ng.loop1.water5.frame634 

   0  1 
C         -2.37913        9.79379       11.96455
C         -3.84771        9.47080       12.02489
O         -4.62634       10.10429       11.32796
H         -1.78595        9.12097       12.62188
H         -2.00971        9.67344       10.92539
H         -2.20929       10.83862       12.29796
N         -4.29397        8.49462       12.86115
C         -5.69433        8.09304       12.99574
C         -6.65300        9.26612       13.24261
O         -6.44902       10.05675       14.14269
C         -5.86175        6.94363       14.03148
C         -4.91425        6.90282       15.22747
O         -4.18025        5.93202       15.33145
O         -4.80027        7.86197       16.17292
H         -3.58432        8.01005       13.42890
H         -6.01851        7.65216       12.02673
H         -5.64044        6.00548       13.47104
H         -6.92540        6.85342       14.33012
N         -7.73507        9.42682       12.42180
C         -8.71929       10.51262       12.50117
C         -9.49022       10.55471       13.81701
O         -9.95947        9.52425       14.27847
C         -9.69637       10.44659       11.30137
C        -10.56625        9.17428       11.20474
C        -11.35072        9.17540        9.88159
C        -12.14693        7.88604        9.62727
N        -13.22130        7.68407       10.59906
H         -7.84624        8.74254       11.66089
H         -8.17828       11.47686       12.37859
H         -9.07593       10.51652       10.38406
H        -10.36158       11.33765       11.32456
H        -11.25951        9.12646       12.06929
H         -9.92799        8.26838       11.21462
H        -10.62273        9.27435        9.04682
H        -12.03568       10.04335        9.84324
H        -11.45959        7.01156        9.63464
H        -12.59615        7.95805        8.61148
H        -13.75303        6.82285       10.33657
H        -12.83375        7.55116       11.55956
H        -13.87751        8.49756       10.58253
N         -9.68479       11.75407       14.44741
C        -10.39514       11.93886       15.71386
C        -11.54986       12.92773       15.54753
O        -11.48345       14.01150       16.11321
C         -9.38256       12.46735       16.75640
C         -8.32564       11.44407       17.00265
O         -8.63058       10.35941       17.46937
O         -7.04869       11.68307       16.66481
H         -9.28544       12.60153       14.01514
H        -10.81358       10.98491       16.10500
H         -9.88675       12.68576       17.72323
H         -8.91946       13.40729       16.37978
N        -12.66993       12.66744       14.81712
C        -12.98039       11.43174       14.12581
C        -13.16295       11.65544       12.64398
O        -13.65017       10.74741       11.98645
H        -13.39021       13.40633       14.76553
H        -13.94159       11.06005       14.54302
H        -12.22980       10.63847       14.28286
N        -12.77836       12.81673       12.03379
C        -12.99587       13.06185       10.61076
C        -12.15061       14.21441       10.07569
O        -11.41620       14.85329       10.81731
C        -14.50853       13.26871       10.33915
C        -15.08383       14.42147       11.11959
O        -15.98206       14.22717       11.92333
O        -14.62485       15.67304       10.92868
H        -12.29897       13.53611       12.59240
H        -12.64479       12.18044       10.03949
H        -15.05818       12.34271       10.61128
H        -14.69631       13.43948        9.25978
N        -12.20137       14.50803        8.74823
C        -11.42519       15.55343        8.11298
C         -9.95297       15.22928        8.07416
O         -9.15427       16.06045        8.47658
H        -12.83453       13.96737        8.14111
H        -11.62005       16.53460        8.60036
H        -11.75330       15.63138        7.05436
N         -9.52259       14.04846        7.54167
C         -8.11303       13.74220        7.30056
C         -7.25287       13.90361        8.55191
O         -7.42678       13.18485        9.52519
C         -7.93209       12.35305        6.62585
C         -8.44620       11.16504        7.45029
O         -8.60332       12.34931        5.38983
H        -10.23899       13.37387        7.23496
H         -7.75310       14.48575        6.55537
H         -6.83922       12.18352        6.46497
H         -7.92315       12.48460        4.67892
H         -7.90320       11.07270        8.40883
H         -9.53425       11.25109        7.65140
H         -8.27886       10.22399        6.88441
N         -6.31217       14.89180        8.57904
C         -5.43511       15.18210        9.70753
C         -6.01672       16.31164       10.53845
O         -5.89654       16.26791       11.75458
C         -4.01963       15.59920        9.19210
C         -3.36887       14.54699        8.25809
C         -3.06703       15.95856       10.35265
C         -3.09737       13.18704        8.90431
H         -6.24296       15.51722        7.76116
H         -5.33110       14.29134       10.36597
H         -4.13777       16.52248        8.57940
H         -2.40229       14.95506        7.88715
H         -4.01751       14.39025        7.37012
H         -2.93083       15.10142       11.04338
H         -2.07689       16.26935        9.95727
H         -3.45989       16.81390       10.94075
H         -2.61786       12.52110        8.15644
H         -2.40466       13.28244        9.76494
H         -4.04201       12.71130        9.23653
N         -6.65285       17.36126        9.94632
C         -7.11105       18.54196       10.66865
C         -6.63137       19.78324        9.92482
O         -6.05488       19.66483        8.85180
C         -8.65557       18.48992       10.83114
C         -9.08366       17.27977       11.67914
O         -9.16351       19.66114       11.41967
H         -6.82139       17.33543        8.93096
H         -6.65996       18.57238       11.68520
H         -9.11904       18.39768        9.82601
H         -8.81524       19.71180       12.34886
H         -8.62999       17.34393       12.69330
H        -10.18747       17.26718       11.79035
H         -8.76653       16.32553       11.21227
N         -6.81164       21.01794       10.46493
C         -6.36230       22.24503        9.82961
C         -5.28107       22.84783       10.70616
O         -4.17807       23.05454       10.21698
C         -7.58349       23.15790        9.54447
C         -7.23043       24.37114        8.66790
O         -8.24300       23.54430       10.72483
H         -7.25999       21.09716       11.38542
H         -5.90912       22.02826        8.83599
H         -8.30746       22.56216        8.94486
H         -7.79956       24.35989       11.07300
H         -6.50274       25.03634        9.17696
H         -6.79579       24.03066        7.70337
H         -8.15318       24.94897        8.44351
N         -5.50556       23.09909       12.02916
C         -4.47347       23.60018       12.93242
C         -4.57962       22.96884       14.31625
O         -5.54163       22.26320       14.59327
C         -4.55609       25.13901       12.97349
C         -5.90733       25.64540       13.50989
C         -6.09441       27.13925       13.23315
C         -7.48120       27.60560       13.69779
N         -7.73066       28.98855       13.29537
H         -6.44641       22.92895       12.41295
H         -3.47371       23.32052       12.53163
H         -4.42767       25.48948       11.92526
H         -3.72855       25.57039       13.57718
H         -5.99032       25.42515       14.59660
H         -6.73258       25.12530       12.98679
H         -6.01908       27.29943       12.13452
H         -5.30138       27.73333       13.73677
H         -7.55287       27.51386       14.80431
H         -8.26491       26.95907       13.24189
H         -7.00855       29.62324       13.70549
H         -7.71436       29.06142       12.25141
H         -8.67663       29.27739       13.63430
N         -3.60375       23.18554       15.24297
C         -3.66673       22.66335       16.60727
C         -3.79060       21.14009       16.63818
O         -4.77782       20.67636       17.19133
C         -2.47113       23.13206       17.47581
C         -2.42212       24.65921       17.64073
C         -1.23492       25.06397       18.46774
O         -1.10634       24.62172       19.73337
O         -0.37994       25.79664       17.99572
H         -2.79381       23.75824       14.96252
H         -4.58085       23.08118       17.08941
H         -1.50713       22.78878       17.05488
H         -2.57352       22.68039       18.48814
H         -3.34980       25.01303       18.13944
H         -2.34966       25.15298       16.64943
N         -2.88193       20.26514       16.11140
C         -1.67852       20.60578       15.38204
H         -0.79540       20.22079       15.93464
H         -1.71207       20.12130       14.38449
H         -1.55400       21.68619       15.21117
H         -3.06422       19.25606       16.23107
Ca        -5.77612        9.83646       16.61978
O         -3.80904       11.91368       15.30660
H         -4.05806       12.39999       14.48085
H         -2.82036       11.95966       15.33446
O         -7.88184        7.61461       16.58160
H         -8.59883        7.69117       17.25840
H         -8.10673        8.29608       15.89902
O         -3.17066        9.99422       18.26753
H         -2.44055       10.28746       17.66674
H         -2.83551       10.18446       19.17951
O         -6.06030        8.37935       19.08681
H         -6.21762        8.32567       20.06185
H         -5.26374        7.81292       18.92859
O         -5.77803       11.66932       19.31457
H         -6.34682       12.21848       19.91022
H         -5.18286       11.17028       19.92791

Ca 1.0



