%chk=apoCaM-CA-Ng.loop1.water4.frame290.chk
%nprocshared=20
%mem=10GB
%nosave
#b3lyp/svp scf=(tight,noincore,xqc) Test 
#IOP(5/87=12) Density=Current Pop=(MK,readradii) iop(6/33=2) iop(6/42=6)

apoCaM-CA-Ng.loop1.water4.frame290 

   0  1 
C         72.97530       53.89605       41.79064
C         72.48951       55.30627       41.94295
O         72.23308       55.96634       40.94605
H         73.96465       53.78442       42.28399
H         72.25131       53.20426       42.26895
H         73.08016       53.62607       40.71853
N         72.38122       55.84777       43.18608
C         71.94935       57.21596       43.43543
C         73.14292       58.09137       43.78106
O         72.93522       59.18315       44.28026
C         70.89963       57.24632       44.57133
C         69.65949       56.45982       44.24718
O         68.57641       57.02115       44.19144
O         69.72732       55.12944       44.05089
H         72.67743       55.28073       43.99653
H         71.48088       57.66824       42.53602
H         70.59783       58.30184       44.74999
H         71.34308       56.85198       45.51138
N         74.42029       57.72414       43.47022
C         75.58389       58.54445       43.77716
C         76.24811       59.05118       42.51036
O         76.49019       58.24033       41.62713
C         76.61178       57.73125       44.57904
C         76.14527       57.47143       46.01388
C         77.26605       56.80478       46.81749
C         76.89258       56.68749       48.29794
N         77.98424       56.08232       49.05953
H         74.59187       56.83796       42.97370
H         75.29323       59.40022       44.39364
H         77.54561       58.32856       44.64673
H         76.85920       56.78158       44.05465
H         75.22865       56.84248       46.02256
H         75.91019       58.45083       46.48675
H         78.18632       57.42664       46.74388
H         77.48083       55.79969       46.39305
H         75.97346       56.07138       48.40802
H         76.68754       57.70394       48.70429
H         78.16910       55.11338       48.71237
H         78.85152       56.66064       48.96727
H         77.71496       56.03871       50.06853
N         76.67798       60.34503       42.34492
C         76.57160       61.45604       43.30145
C         77.17043       61.09058       44.66253
O         76.45526       61.06168       45.65335
C         75.13601       62.01876       43.35206
C         74.70218       62.55139       42.01935
O         75.51829       62.47523       40.94998
O         73.58562       63.02500       41.89366
H         77.18465       60.55351       41.46973
H         77.17220       62.30892       42.91815
H         75.10105       62.87176       44.04485
H         74.40782       61.25816       43.68653
N         78.49481       60.80194       44.80398
C         79.42041       60.98467       43.70461
C         80.85882       60.65364       44.01929
O         81.14401       60.06897       45.05414
H         78.84296       60.52286       45.73395
H         79.37165       62.05739       43.43937
H         79.13041       60.36430       42.83414
N         81.85494       61.01292       43.15737
C         81.62159       61.88070       42.00170
C         81.64125       63.34086       42.43829
O         81.96745       63.62541       43.58371
C         82.60411       61.55969       40.85644
C         84.04901       61.72498       41.23869
O         84.48104       62.81494       41.57703
O         84.87851       60.66459       41.19527
H         82.82707       60.81014       43.43692
H         80.61457       61.68173       41.57817
H         82.38736       62.20524       39.97842
H         82.43664       60.50513       40.54469
N         81.27198       64.32653       41.57342
C         81.29034       65.73870       41.92524
C         80.27363       66.16765       42.97547
O         80.29449       67.34238       43.31383
H         81.00601       64.07302       40.60998
H         81.07932       66.33674       41.01209
H         82.31281       66.00312       42.27247
N         79.34800       65.31948       43.51966
C         78.35187       65.74656       44.50381
C         78.53037       64.96707       45.79347
O         78.46459       63.74608       45.76966
C         76.92262       65.53368       43.96183
C         76.67874       66.31298       42.66868
O         75.99614       65.95644       44.93032
H         79.31947       64.33813       43.21618
H         78.45648       66.83092       44.72694
H         76.78956       64.45055       43.75760
H         75.13933       65.49452       44.73547
H         76.81566       67.40153       42.84125
H         77.37240       65.97695       41.87001
H         75.63887       66.13474       42.32414
N         78.74610       65.62177       46.97092
C         78.92518       64.92008       48.24297
C         77.67227       64.16164       48.68175
O         77.78079       63.36417       49.60410
C         79.36583       65.89159       49.38755
C         78.24134       66.90902       49.74253
C         80.69434       66.58675       49.02889
C         78.58868       67.84386       50.90057
H         78.81106       66.64831       46.94491
H         79.74199       64.17810       48.09116
H         79.56286       65.27439       50.29335
H         77.33400       66.34789       50.05211
H         77.97395       67.52908       48.86224
H         81.46768       65.82840       48.78472
H         80.58210       67.27196       48.16413
H         81.07792       67.17485       49.88684
H         79.42610       68.51872       50.63156
H         77.70782       68.47972       51.13264
H         78.85332       67.25919       51.80658
N         76.44398       64.41681       48.13697
C         75.20614       63.79253       48.60175
C         74.51050       63.06949       47.45866
O         74.86463       63.28566       46.31341
C         74.31813       64.89947       49.23079
C         73.00547       64.40557       49.84030
O         74.02336       65.88317       48.26813
H         76.36196       65.13144       47.40060
H         75.43779       63.03467       49.38227
H         74.90643       65.33879       50.07362
H         74.46495       66.72592       48.55237
H         73.20134       63.62353       50.60357
H         72.48540       65.25561       50.33069
H         72.32428       64.01102       49.05899
N         73.52859       62.15911       47.71090
C         72.81361       61.39750       46.67909
C         71.98182       62.30065       45.75170
O         72.01097       63.51212       45.91562
C         71.94712       60.29026       47.34994
C         70.80929       60.83809       48.22339
O         72.78337       59.46925       48.12750
H         73.32487       61.95930       48.70043
H         73.56784       60.87101       46.05719
H         71.48981       59.67181       46.54875
H         72.36069       58.57144       48.17042
H         70.12035       61.46429       47.61988
H         70.22798       59.99022       48.64410
H         71.19354       61.43976       49.07164
N         71.18330       61.76407       44.77316
C         70.32828       62.55849       43.89171
C         70.39741       62.13186       42.41577
O         69.62577       62.66850       41.63156
C         68.87455       62.53064       44.41453
C         68.20090       61.14947       44.43679
C         66.73655       61.30337       44.87790
C         65.99798       59.96105       44.90987
N         64.59270       60.15407       45.27226
H         71.09811       60.74405       44.70292
H         70.62238       63.63024       43.93404
H         68.27001       63.21242       43.77569
H         68.86243       62.94816       45.44623
H         68.73841       60.47597       45.13916
H         68.22472       60.70341       43.41920
H         66.21671       61.97751       44.16145
H         66.69636       61.76397       45.88995
H         66.48333       59.28719       45.65023
H         66.05148       59.48250       43.90702
H         64.11993       60.76209       44.56379
H         64.11079       59.22665       45.29276
H         64.51861       60.59640       46.21727
N         71.29677       61.21643       41.94412
C         71.34775       60.80617       40.53758
C         70.15496       59.94189       40.18949
O         69.96627       58.90650       40.81255
C         72.66392       60.05486       40.23494
C         72.79034       59.49007       38.80061
C         72.48093       60.43836       37.65669
O         71.60705       60.13255       36.86130
O         73.15967       61.58672       37.45120
H         72.00030       60.83235       42.58815
H         71.36671       61.71245       39.89541
H         72.79175       59.20403       40.93933
H         73.49902       60.74873       40.42220
H         72.09836       58.62351       38.71589
H         73.82240       59.09699       38.67718
N         69.33552       60.29139       39.15882
C         68.22489       59.47717       38.70945
H         67.28604       60.06388       38.77294
H         68.39567       59.18397       37.65147
H         68.10733       58.55019       39.30905
H         69.52116       61.16270       38.63956
Ca        74.56650       62.47286       38.94090
O         73.84076       64.56302       36.34256
H         72.88877       64.29143       36.32381
H         74.27216       63.99798       35.65340
O         76.93748       65.89890       37.12604
H         76.47351       66.54574       36.53707
H         77.21978       66.43508       37.90927
O         71.95507       64.36349       38.95172
H         72.42148       63.94596       39.71736
H         71.01547       64.06765       39.04581
O         74.94801       65.78691       39.62731
H         74.21638       65.68094       40.28564
H         75.13354       66.75958       39.61861

Ca 1.0



