%chk=apoCaM-CA-Ng.loop1.water5.frame540.chk
%nprocshared=20
%mem=10GB
%nosave
#b3lyp/svp scf=(tight,noincore,xqc) Test 
#IOP(5/87=12) Density=Current Pop=(MK,readradii) iop(6/33=2) iop(6/42=6)

apoCaM-CA-Ng.loop1.water5.frame540 

   0  1 
C        100.58850       24.50219       44.19934
C        100.92793       24.54268       42.73529
O        102.10348       24.53875       42.40197
H         99.48963       24.50968       44.36371
H        101.00668       23.58370       44.66013
H        101.01931       25.39257       44.70436
N         99.93451       24.60304       41.80197
C        100.13291       24.70129       40.35498
C        100.74082       23.41227       39.78471
O        101.10012       22.53839       40.55907
C        100.93342       25.99143       40.03033
C        100.73856       26.58683       38.65757
O         99.89395       26.16434       37.88522
O        101.44389       27.68181       38.31822
H         98.95782       24.61574       42.13529
H         99.11259       24.80269       39.92232
H        102.01252       25.80667       40.21492
H        100.60203       26.79493       40.72379
N        100.84640       23.21941       38.43423
C        101.22092       21.98263       37.74614
C        100.05972       20.99867       37.72610
O         99.61309       20.67327       36.63359
C        102.56766       21.36983       38.17375
C        103.70691       22.39442       38.04164
C        105.08594       21.72973       38.12857
C        106.19998       22.78616       38.09165
N        107.52127       22.16000       38.06259
H        100.58534       23.98552       37.80996
H        101.37033       22.25432       36.67367
H        102.76506       20.52240       37.47869
H        102.53933       20.95958       39.20486
H        103.59009       23.16147       38.83760
H        103.64713       22.89917       37.05142
H        105.20043       21.04091       37.26126
H        105.17357       21.14038       39.06632
H        106.11421       23.43069       38.99488
H        106.08754       23.42981       37.19055
H        107.64064       21.51963       38.88044
H        107.63975       21.62308       37.17249
H        108.25339       22.90557       38.10440
N         99.45293       20.55399       38.86508
C         98.21795       19.78799       38.84447
C         97.08992       20.75227       39.21396
O         97.09435       21.21152       40.34816
C         98.31965       18.60665       39.83107
C         97.10126       17.73067       39.79983
O         96.80139       17.13531       38.77747
O         96.35016       17.57640       40.90701
H         99.78608       20.86413       39.78080
H         98.08082       19.34178       37.84975
H         98.46813       18.99639       40.86251
H         99.20135       17.98123       39.57314
N         96.11326       21.18104       38.35284
C         95.94902       20.81151       36.95365
C         94.60709       20.16702       36.76060
O         93.81369       20.64229       35.96071
H         95.42463       21.85616       38.72050
H         96.70721       20.10784       36.58686
H         96.02999       21.72424       36.32417
N         94.28160       19.07819       37.50476
C         92.99920       18.40281       37.43192
C         92.64639       17.75181       38.79718
O         93.64604       17.08956       39.52028
C         92.82320       17.59295       36.10938
C         93.96977       16.77650       35.51247
O         94.45465       15.65602       36.07890
O         94.39435       17.08712       34.41064
H         94.96207       18.75887       38.20642
H         92.20042       19.17910       37.40161
H         92.60386       18.36087       35.33443
H         91.90921       16.96718       36.18189
N         91.32636       17.12681       38.91638
C         90.93325       16.95017       40.32757
C         90.70133       18.26041       41.06282
O         89.58309       18.48725       41.50445
H         90.60908       17.72744       38.44640
H         91.68867       16.34694       40.86904
H         89.99090       16.35981       40.34289
N         91.70597       19.17155       41.23044
C         91.53997       20.44589       41.91000
C         92.61010       20.62802       42.96904
O         93.52357       19.81675       43.07049
C         91.56743       21.60734       40.88144
C         92.90861       21.73619       40.14919
O         90.55476       21.41894       39.92730
H         92.64047       18.97748       40.85814
H         90.55153       20.47645       42.41980
H         91.39743       22.57645       41.40453
H         89.69256       21.61171       40.38054
H         92.86582       22.59097       39.44182
H         93.73378       21.92602       40.86776
H         93.13772       20.82025       39.56774
N         92.54632       21.69507       43.80603
C         93.51388       21.94447       44.86918
C         93.49476       20.74879       45.81033
O         94.52920       20.14392       46.03658
C         93.17159       23.27999       45.60770
C         93.23903       24.48091       44.61740
C         94.12439       23.50952       46.79844
C         92.71821       25.79339       45.20520
H         91.74070       22.32925       43.69955
H         94.53347       22.05087       44.43180
H         92.13442       23.20402       46.00310
H         92.60767       24.28956       43.72759
H         94.28147       24.61853       44.25663
H         95.17331       23.60509       46.44524
H         93.84954       24.42211       47.36319
H         94.06625       22.66959       47.52121
H         91.66492       25.66960       45.53727
H         93.33678       26.14065       46.05502
H         92.74692       26.58092       44.42234
N         92.31311       20.36197       46.36605
C         92.12853       19.20456       47.25001
C         90.75883       19.28283       47.93744
O         90.00646       20.21431       47.69868
C         92.34592       17.84849       46.50434
C         91.50669       17.70786       45.23341
O         93.70121       17.68859       46.16620
H         91.49910       20.94511       46.13335
H         92.85895       19.27062       48.08578
H         92.04824       17.02040       47.18779
H         94.00712       16.81210       46.52177
H         91.69194       16.71191       44.77518
H         90.42532       17.80502       45.45595
H         91.79467       18.47868       44.49368
N         90.40687       18.35487       48.87435
C         89.20171       18.47538       49.69443
C         89.56002       18.56598       51.18059
O         88.66481       18.82983       51.97252
C         88.27092       17.27481       49.39101
C         86.89288       17.37739       50.06002
O         88.90011       16.08005       49.77994
H         91.02634       17.55112       49.03636
H         88.65853       19.40871       49.43222
H         88.10487       17.27465       48.28764
H         88.48733       15.34859       49.25117
H         86.25891       16.52530       49.73649
H         86.96447       17.33172       51.16458
H         86.38992       18.32129       49.76063
N         90.82924       18.34479       51.64093
C         91.18966       18.27041       53.05482
C         92.68387       18.00752       53.16204
O         93.14164       16.98731       52.66057
C         90.39481       17.12699       53.73287
C         90.73647       16.91384       55.21190
C         89.83298       15.81697       55.79119
C         90.17219       15.51332       57.25251
N         89.28056       14.48226       57.78375
H         91.58649       18.17319       50.96644
H         90.94108       19.23616       53.54872
H         90.57834       16.17848       53.18051
H         89.31064       17.34620       53.67723
H         90.57924       17.85909       55.77615
H         91.80103       16.60890       55.30737
H         89.95356       14.88515       55.19561
H         88.77226       16.14693       55.72248
H         90.06951       16.43815       57.86204
H         91.22519       15.15968       57.31863
H         89.36671       13.60467       57.22073
H         89.54418       14.27658       58.77398
H         88.29002       14.81815       57.75945
N         93.51039       18.89365       53.78414
C         94.95558       18.70316       53.84224
C         95.55435       18.66636       52.43507
O         96.18106       17.66388       52.12315
C         95.64544       19.75845       54.73565
C         95.24014       19.61270       56.21121
C         95.92203       20.64659       57.06078
O         97.14064       20.68732       57.12520
O         95.18873       21.53035       57.76416
H         93.09769       19.73530       54.21517
H         95.16802       17.71922       54.32204
H         95.40681       20.78392       54.40520
H         96.74684       19.61278       54.66780
H         95.52344       18.60278       56.58034
H         94.14116       19.72870       56.31796
N         95.41106       19.65172       51.49777
C         94.66558       20.88012       51.67138
H         93.60576       20.66535       51.91466
H         95.12757       21.52100       52.44169
H         94.68277       21.46028       50.72419
H         95.84481       19.50226       50.57296
Ca        94.27533       15.43024       38.23713
O         91.91444       13.71490       38.94932
H         92.58804       13.12630       38.52424
H         91.66367       14.35694       38.23822
O         93.99690       15.63191       42.07747
H         94.47766       15.63912       42.94233
H         93.23637       15.01416       42.22070
O         97.53498       14.46056       40.39166
H         98.10275       14.67123       39.60820
H         97.94731       14.96266       41.13855
O         96.36914       13.42036       37.74826
H         96.24402       13.47059       36.76756
H         96.21765       12.46828       37.97245
O         94.80028       12.94883       40.81693
H         94.73124       12.02324       40.47272
H         95.13868       12.84581       41.74197

Ca 1.0



