%chk=apoCaM-CA-Ng.loop4.water3.frame420.chk
%nprocshared=20
%mem=10GB
%nosave
#b3lyp/svp scf=(tight,noincore,xqc) Test 
#IOP(5/87=12) Density=Current Pop=(MK,readradii) iop(6/33=2) iop(6/42=6)

apoCaM-CA-Ng.loop4.water3.frame420 

   -3  1 
C         69.97042       81.91369       83.28708
C         68.77050       81.09148       83.64390
O         68.49017       80.14759       82.92237
H         70.86959       81.26207       83.26671
H         69.82357       82.35431       82.27786
H         70.13463       82.73383       84.01514
N         68.02531       81.37014       84.75634
C         66.84063       80.61175       85.15018
C         67.15706       79.13832       85.30097
O         66.56573       78.32783       84.61952
C         65.58996       80.97068       84.28767
C         65.73991       81.19857       82.79133
O         66.06346       80.24535       81.88883
O         65.52659       82.32318       82.36505
H         68.32748       82.13776       85.37500
H         66.54278       80.92304       86.17822
H         65.25297       81.95564       84.68747
H         64.76094       80.26260       84.50229
N         68.06941       78.74193       86.23765
C         68.51575       77.37442       86.52255
C         67.37703       76.47232       87.00495
O         67.33733       76.19006       88.19461
C         69.36195       76.78996       85.35522
C         69.88348       75.35132       85.62474
C         70.53964       77.73052       85.02974
C         70.78370       75.19840       86.85457
H         68.50060       79.48356       86.81157
H         69.21170       77.46971       87.38639
H         68.72465       76.73613       84.44964
H         70.45708       75.01077       84.73478
H         69.02229       74.66292       85.74436
H         70.17321       78.72562       84.70493
H         71.19310       77.88174       85.91368
H         71.15507       77.31088       84.21083
H         71.10945       74.14018       86.93736
H         71.69332       75.82685       86.77194
H         70.23505       75.45808       87.78243
N         66.44004       75.95370       86.15854
C         65.32351       75.13237       86.60619
C         65.69085       73.64541       86.68061
O         65.54925       73.11763       87.77553
C         64.03755       75.45945       85.81888
C         63.56361       76.86539       86.08234
O         63.43415       77.65717       85.16392
O         63.24845       77.24924       87.33431
H         66.51958       76.12303       85.15296
H         65.06648       75.41537       87.65404
H         63.22586       74.77220       86.14367
H         64.20092       75.34590       84.73382
N         66.20260       72.86602       85.67421
C         66.53603       73.25675       84.31459
C         65.32979       73.38349       83.41067
O         64.21991       73.15587       83.87023
H         66.45420       71.89687       85.92767
H         67.14487       72.44228       83.87007
H         67.17041       74.15436       84.33950
N         65.43685       73.67705       82.07878
C         66.69622       73.85402       81.34890
C         67.50113       75.12407       81.75869
O         66.78412       75.88436       82.68608
C         66.43045       73.91130       79.82499
C         65.59821       75.09396       79.40028
O         64.51399       74.91983       78.86832
O         66.05796       76.34795       79.56969
H         64.55793       73.70266       81.53814
H         67.29860       72.93686       81.51714
H         65.91545       72.97138       79.52833
H         67.38888       73.95300       79.26619
N         68.84417       74.85317       82.29681
C         69.69908       73.96195       81.49111
C         70.06595       72.75026       82.30695
O         69.67511       72.66607       83.46347
H         69.33540       75.76822       82.41909
H         70.64466       74.48100       81.21886
H         69.22399       73.65151       80.54163
N         70.86450       71.78238       81.77731
C         71.36968       70.66535       82.57019
C         72.85786       70.83925       82.87062
O         73.34839       70.14192       83.74735
C         70.93874       69.29797       81.98720
C         71.26700       69.04393       80.50810
C         72.73414       69.04249       80.21966
N         73.55618       68.14732       80.80917
O         73.18449       69.84973       79.42525
H         71.17786       71.88543       80.80007
H         70.91109       70.69654       83.58313
H         69.83068       69.23993       82.06606
H         71.35153       68.48257       82.61983
H         70.75810       69.80637       79.87975
H         70.85796       68.05263       80.21553
H         73.19393       67.44775       81.47238
H         74.55913       68.15025       80.59203
N         73.60491       71.82228       82.27778
C         74.90576       72.27005       82.78031
C         76.06527       71.99077       81.83048
O         77.18662       72.33666       82.17897
C         74.83406       73.80342       83.09307
C         73.75737       74.11910       84.14363
C         74.58952       74.67059       81.83668
H         73.20920       72.34553       81.48922
H         75.15173       71.73777       83.72523
H         75.81384       74.11161       83.52027
H         72.74404       73.85524       83.77144
H         73.95570       73.55667       85.07942
H         73.76418       75.20471       84.38427
H         74.63403       75.74579       82.10734
H         75.36776       74.48700       81.06706
H         73.59262       74.48811       81.38445
N         75.88585       71.39844       80.61934
C         76.95060       71.21018       79.64011
C         76.68888       72.02376       78.38192
O         77.52129       71.96736       77.48957
C         77.07413       69.71544       79.26621
C         77.62946       68.87812       80.38987
N         78.88273       69.09627       80.85128
O         76.96456       67.97084       80.86305
H         74.94270       71.10378       80.35043
H         77.92682       71.57034       80.03025
H         77.77392       69.59088       78.41187
H         76.07825       69.33858       78.94093
H         79.47347       69.83657       80.44593
H         79.27264       68.50863       81.60259
N         75.58350       72.81714       78.23439
C         75.31643       73.56454       77.00484
C         74.13701       74.51568       77.14030
O         73.43344       74.48171       78.13466
C         75.09931       72.58534       75.81605
C         74.12447       71.45839       76.11677
C         74.59505       70.13199       76.14047
C         72.76062       71.69620       76.36962
C         73.72804       69.07115       76.41099
C         71.89280       70.63093       76.64048
C         72.37191       69.31663       76.66107
O         71.52610       68.30152       76.93077
H         74.91741       72.89658       79.01165
H         76.19063       74.21985       76.79603
H         76.08215       72.13934       75.56552
H         74.78310       73.12378       74.89900
H         75.63910       69.91433       75.95327
H         72.35950       72.69766       76.35574
H         74.11363       68.05950       76.42885
H         70.84603       70.82668       76.83734
H         71.82323       67.38072       76.96649
N         73.87767       75.38772       76.11803
C         72.77747       76.34387       76.03194
C         72.96798       77.55490       76.93789
O         73.12115       78.64620       76.40483
C         71.41344       75.64074       76.18346
C         70.23424       76.55312       75.82173
C         68.94026       75.79194       75.88267
O         68.76248       74.82273       75.16086
O         67.96497       76.18087       76.72517
H         74.49719       75.34974       75.29507
H         72.80688       76.74230       74.99027
H         71.27518       75.25642       77.21581
H         71.40642       74.77784       75.48179
H         70.36336       76.94263       74.78826
H         70.19464       77.41385       76.52344
N         72.94741       77.46963       78.29941
C         73.07526       78.64692       79.15458
C         74.45300       79.29286       79.05774
O         74.61625       80.38473       79.58622
C         72.77845       78.31132       80.64106
C         71.43415       77.59184       80.89079
C         70.20479       78.35255       80.47847
O         70.27037       79.48520       80.03113
O         69.00290       77.76503       80.60774
H         72.78018       76.56289       78.73490
H         72.32990       79.38819       78.80082
H         72.80021       79.24740       81.24278
H         73.58411       77.64682       81.02063
H         71.35121       77.37214       81.97168
H         71.42342       76.61519       80.37250
N         75.49717       78.68676       78.42160
C         76.79681       79.31246       78.31318
H         77.49786       78.63698       77.77793
H         76.71151       80.26034       77.74043
H         77.20692       79.52294       79.32363
H         75.38769       77.75053       78.00768
Ca        66.51902       78.04011       82.01450
O         67.07747       80.01296       79.17195
H         67.44533       79.32293       78.56490
H         67.86784       80.39848       79.62563
O         63.72259       77.01216       82.00920
H         64.11179       77.53804       82.75056
H         62.74603       77.12057       82.12275
O         64.34539       78.90305       79.42894
H         63.56523       78.31370       79.58160
H         64.62404       78.70810       78.49892

Ca 1.0



