%chk=apoCaM-CA-Ng.loop4.water5.frame20.chk
%nprocshared=20
%mem=10GB
%nosave
#b3lyp/svp scf=(tight,noincore,xqc) Test 
#IOP(5/87=12) Density=Current Pop=(MK,readradii) iop(6/33=2) iop(6/42=6)

apoCaM-CA-Ng.loop4.water5.frame20 

   -3  1 
C         87.78502       42.59080       48.08040
C         89.28280       42.61938       48.11484
O         89.86724       43.58398       47.64900
H         87.38204       43.50428       47.59385
H         87.44277       41.70365       47.50844
H         87.39117       42.53733       49.11654
N         89.97108       41.58814       48.68165
C         91.42488       41.51536       48.77990
C         91.98005       42.69650       49.55596
O         92.74548       43.46423       49.00561
C         92.10175       41.21685       47.40958
C         91.90792       42.20891       46.29327
O         91.35500       41.85895       45.26311
O         92.38851       43.46147       46.38696
H         89.43047       40.81416       49.09716
H         91.68107       40.61900       49.38851
H         91.70793       40.23559       47.06289
H         93.19494       41.09297       47.57037
N         91.61368       42.87213       50.86360
C         92.09650       43.88996       51.80860
C         93.54339       43.63005       52.23902
O         93.76206       43.33616       53.40612
C         91.86885       45.35161       51.32185
C         92.25697       46.40671       52.39750
C         90.41949       45.57138       50.85746
C         91.43851       46.35470       53.69456
H         90.92007       42.20774       51.24123
H         91.47680       43.75536       52.72197
H         92.52422       45.54219       50.44713
H         92.12868       47.41868       51.95735
H         93.33047       46.29533       52.65935
H         89.69139       45.35094       51.66409
H         90.28634       46.62406       50.53344
H         90.18239       44.91783       49.99437
H         90.36051       46.51027       53.49191
H         91.57559       45.39162       54.22560
H         91.77559       47.16420       54.37567
N         94.57717       43.70193       51.35716
C         95.96350       43.40455       51.68774
C         96.58856       44.46847       52.59444
O         97.04972       44.08469       53.65959
C         96.80621       43.20514       50.40133
C         96.31064       42.07881       49.52518
O         95.23511       41.34121       49.86753
O         96.89370       41.83159       48.48203
H         94.38170       43.93700       50.38630
H         95.99740       42.42090       52.21087
H         97.85546       42.97739       50.68838
H         96.80663       44.11832       49.78249
N         96.69895       45.80185       52.28550
C         96.13696       46.45307       51.11444
C         97.20802       46.98462       50.18251
O         98.10112       46.22138       49.84554
H         97.19471       46.41200       52.95440
H         95.43878       47.23538       51.46381
H         95.53978       45.76412       50.51153
N         97.18494       48.23807       49.63501
C         96.17924       49.26688       49.90867
C         94.76063       48.79299       49.58035
O         94.62342       47.80300       48.87759
C         96.48974       50.53796       49.07718
C         97.82764       51.12441       49.42846
O         98.70136       51.21385       48.58055
O         98.06441       51.56554       50.67841
H         97.94530       48.46461       48.97398
H         96.24012       49.48006       50.99754
H         95.72915       51.32795       49.22932
H         96.46666       50.27100       47.99625
N         93.64005       49.38398       50.10391
C         93.65162       50.54321       50.98291
C         93.28072       50.17302       52.39301
O         93.90655       49.27670       52.94148
H         92.72149       48.96293       49.89368
H         92.99851       51.33976       50.56731
H         94.65695       50.98224       51.07511
N         92.37725       50.92034       53.09130
C         92.19567       50.77714       54.53446
C         90.72359       50.73462       54.94794
O         90.46678       50.64697       56.14101
C         92.94500       51.96639       55.18585
C         93.17488       51.83368       56.70268
C         93.93976       53.01574       57.24531
N         95.19081       53.30032       56.81156
O         93.42302       53.72320       58.09728
H         91.93912       51.72791       52.62191
H         92.68335       49.84291       54.88994
H         92.41385       52.91512       54.95015
H         93.95175       52.01427       54.71546
H         93.74962       50.90529       56.91329
H         92.21000       51.77675       57.24036
H         95.65560       52.71521       56.10278
H         95.70172       54.11117       57.19126
N         89.69749       50.78374       54.04615
C         88.29029       50.84506       54.44698
C         87.58519       52.09378       53.91733
O         86.42539       52.27068       54.25716
C         87.53194       49.54578       54.06543
C         88.06937       48.35839       54.87738
C         87.58403       49.23797       52.56221
H         89.90873       50.78390       53.03810
H         88.20808       50.93529       55.55388
H         86.46437       49.66928       54.35558
H         89.13964       48.17617       54.65471
H         87.96744       48.56399       55.96569
H         87.48850       47.43955       54.65062
H         88.62421       49.04028       52.22886
H         86.97677       48.33396       52.34318
H         87.16814       50.08492       51.97770
N         88.21937       53.02866       53.14273
C         87.59234       54.29328       52.75798
C         87.54593       54.52427       51.25547
O         87.13528       55.61741       50.87757
C         88.34479       55.46602       53.44248
C         89.77232       55.70195       52.98518
N         90.47492       56.73699       53.49935
O         90.29540       54.98346       52.14593
H         89.19916       52.88591       52.87287
H         86.54497       54.34228       53.12653
H         88.34276       55.30148       54.54160
H         87.77854       56.40381       53.24739
H         90.05127       57.36422       54.19880
H         91.44141       56.91918       53.19025
N         87.95226       53.60505       50.32789
C         88.09780       53.99609       48.92819
C         88.22936       52.81631       47.97621
O         89.06843       51.95285       48.19576
C         89.36353       54.88044       48.80273
C         89.50661       55.48896       47.43119
C         90.57666       55.13199       46.59498
C         88.57010       56.43544       46.98444
C         90.70155       55.70878       45.32727
C         88.70077       57.01599       45.72104
C         89.76368       56.65492       44.88726
O         89.87409       57.22377       43.67017
H         88.23049       52.65590       50.62221
H         87.20205       54.58223       48.62459
H         90.25043       54.25586       49.05392
H         89.34210       55.71789       49.53169
H         91.30947       54.40346       46.91907
H         87.74403       56.73104       47.61943
H         91.52746       55.42079       44.68941
H         87.97524       57.74910       45.39179
H         90.59445       57.00348       43.06280
N         87.49250       52.80210       46.82139
C         87.66647       51.86177       45.71411
C         87.20218       50.44999       46.03632
O         87.34732       49.59441       45.17642
C         89.13361       51.92714       45.19419
C         89.36473       51.23223       43.83653
C         90.77598       51.42032       43.36010
O         91.55947       50.34827       43.13368
O         91.21474       52.54092       43.15687
H         86.82550       53.57300       46.66083
H         87.02043       52.21220       44.87799
H         89.83730       51.50166       45.93965
H         89.38014       53.00122       45.05196
H         88.67250       51.65648       43.07793
H         89.18941       50.14324       43.90760
N         86.56914       50.12212       47.20136
C         86.18721       48.74549       47.49436
C         84.68781       48.51709       47.35936
O         84.24607       47.40222       47.60114
C         86.73984       48.34926       48.88631
C         87.21859       46.88599       48.92470
C         88.42590       46.73011       48.03052
O         88.39630       45.91751       46.96030
O         89.43300       47.38516       48.24826
H         86.34021       50.84848       47.89541
H         86.64459       48.07447       46.73885
H         85.98036       48.56639       49.66879
H         87.63023       48.96892       49.13638
H         86.40169       46.20125       48.61208
H         87.52233       46.61955       49.95935
N         83.85014       49.50561       46.92274
C         82.42771       49.31838       46.71642
H         81.86603       50.05041       47.33267
H         82.18867       49.49605       45.64590
H         82.08801       48.29599       46.98280
H         84.22261       50.43683       46.68964
Ca        90.23935       45.88908       45.64712
O         92.27246       46.09387       47.78209
H         92.21200       46.89424       48.36065
H         93.23878       45.88315       47.73905
O         88.62248       43.76246       44.32207
H         89.58933       43.56184       44.38530
H         88.52056       44.18935       43.43493
O         93.15107       45.48795       44.03268
H         93.75596       44.89932       44.55013
H         93.63785       45.65892       43.18770
O         90.23579       47.10849       42.81184
H         90.10516       47.77456       43.53263
H         89.38346       46.60537       42.78339
O         91.96396       48.71776       46.10767
H         92.20456       48.61416       45.15302
H         92.73686       49.18920       46.50878

Ca 1.0



