%chk=apoCaM-CA-Ng.loop2.water2.frame934.chk
%nprocshared=20
%mem=10GB
%nosave
#b3lyp/svp scf=(tight,noincore,xqc) Test 
#IOP(5/87=12) Density=Current Pop=(MK,readradii) iop(6/33=2) iop(6/42=6)

apoCaM-CA-Ng.loop2.water2.frame934 

   -2  1 
C        -15.66720       91.98250       66.25645
C        -15.38403       90.57552       65.82077
O        -15.46284       90.29054       64.63429
H        -16.52400       91.98801       66.96254
H        -14.77384       92.40390       66.76309
H        -15.91959       92.62348       65.38458
N        -15.04047       89.63661       66.74602
C        -14.76131       88.24256       66.42187
C        -13.30266       87.87648       66.72965
O        -12.94626       86.71923       66.55860
C        -15.78446       87.36360       67.17281
C        -15.71774       85.91465       66.77406
O        -15.90730       85.58655       65.61301
O        -15.46928       84.96966       67.70004
H        -14.98022       89.92237       67.73642
H        -14.91179       88.06220       65.33428
H        -16.80942       87.72183       66.92744
H        -15.63646       87.46656       68.26931
N        -12.38177       88.82398       67.09217
C        -10.95211       88.55729       67.25182
C        -10.43836       89.17669       68.55073
O        -10.63962       90.37177       68.71958
C        -10.21875       89.19289       66.06957
H        -12.67548       89.80856       67.16448
H        -10.74287       87.47230       67.19412
H        -10.59024       88.74876       65.12075
H        -10.39528       90.28951       66.03621
H         -9.12787       89.00283       66.14367
N         -9.76713       88.49582       69.53046
C         -9.40320       87.08105       69.49292
C         -9.26493       86.49354       70.89647
O         -9.31051       87.21882       71.88016
C         -8.12335       86.85778       68.64803
C         -6.92155       87.60003       69.17841
O         -5.82654       86.92129       69.57038
O         -6.91713       88.82013       69.22077
H         -9.49558       89.04312       70.36189
H        -10.25146       86.51399       69.05842
H         -8.29556       87.18923       67.60377
H         -7.88858       85.77208       68.61753
N         -9.19562       85.14184       71.04983
C         -9.22230       84.47466       72.34135
C         -8.21351       83.35494       72.37953
O         -8.63895       82.20842       72.35872
H         -9.24152       84.54801       70.20696
H        -10.22989       84.01194       72.43181
H         -9.10722       85.16765       73.20012
N         -6.86596       83.54521       72.40062
C         -6.18449       84.82834       72.53749
C         -6.37896       85.33829       73.96136
O         -6.09544       84.59135       74.88826
C         -4.68636       84.60407       72.22358
C         -3.83638       85.84306       72.13099
N         -2.52865       85.71547       71.80804
O         -4.31169       86.95240       72.31796
H         -6.28242       82.69422       72.34025
H         -6.57131       85.54126       71.77824
H         -4.62167       84.11482       71.22639
H         -4.24324       83.91618       72.97653
H         -2.12048       84.78558       71.63372
H         -1.91899       86.53722       71.72074
N         -6.86057       86.58932       74.21492
C         -7.17359       87.06956       75.55842
C         -6.26959       88.18431       76.04972
O         -6.52530       88.68779       77.13423
H         -7.03971       87.22307       73.42382
H         -7.10554       86.25235       76.30773
H         -8.22636       87.42502       75.55405
N         -5.17725       88.59526       75.34792
C         -4.24877       89.62966       75.80729
C         -4.19720       90.75529       74.78827
O         -4.90540       90.68172       73.79590
C         -2.84372       88.99871       76.00518
C         -2.84559       87.93972       77.10816
O         -2.39622       88.40505       74.81533
H         -4.96422       88.14191       74.44953
H         -4.57050       90.07004       76.77625
H         -2.11404       89.77285       76.33720
H         -1.99954       89.13371       74.27506
H         -3.53632       87.10650       76.86059
H         -1.82194       87.52338       77.22672
H         -3.15262       88.39486       78.07357
N         -3.35131       91.81622       74.94347
C         -3.17158       92.82666       73.90559
C         -1.77441       92.65155       73.34861
O         -0.80852       92.74820       74.09417
C         -3.43086       94.27068       74.41610
C         -3.32461       95.25436       73.21297
C         -4.81888       94.35320       75.07889
C         -3.52201       96.72733       73.56722
H         -2.75818       91.87249       75.78530
H         -3.89836       92.65675       73.08136
H         -2.66805       94.53360       75.18275
H         -4.07472       94.97935       72.43831
H         -2.31550       95.16705       72.75605
H         -5.00784       95.36543       75.48889
H         -5.61832       94.09948       74.35038
H         -4.88188       93.65174       75.93718
H         -3.39319       97.33948       72.64855
H         -4.54410       96.91939       73.95052
H         -2.77089       97.04851       74.31811
N         -1.61151       92.35607       72.03070
C         -0.33276       92.04900       71.41000
C          0.05921       93.07736       70.36195
O          1.17351       92.96936       69.86715
C         -0.44525       90.66691       70.73328
C         -0.65766       89.55166       71.71536
O          0.26232       89.19559       72.43350
O         -1.85554       88.94731       71.83939
H         -2.44838       92.31397       71.43516
H          0.48118       92.04161       72.17008
H          0.46587       90.42260       70.14506
H         -1.30075       90.70305       70.02344
N         -0.77815       94.07544       69.93728
C         -0.35986       95.03431       68.91902
C         -1.54156       95.87532       68.41470
O         -2.19561       96.49473       69.24302
C          0.71196       95.99572       69.49446
C          1.25114       96.90710       68.41677
C          0.92458       98.27341       68.40564
C          2.07209       96.38933       67.39957
C          1.39711       99.10188       67.38283
C          2.54804       97.22227       66.38309
C          2.20722       98.57687       66.37222
H         -1.73849       94.13117       70.30309
H          0.07803       94.44880       68.09129
H          1.56871       95.45469       69.94795
H          0.23879       96.58785       70.30907
H          0.28910       98.69299       69.17519
H          2.33874       95.33946       67.39214
H          1.13074      100.15060       67.37069
H          3.17645       96.81602       65.60095
H          2.56987       99.21910       65.58019
N         -1.84049       96.02109       67.07784
C         -2.81318       96.99427       66.57276
C         -4.27730       96.72944       66.88257
O         -5.10929       97.52623       66.46997
C         -2.61326       96.95298       65.05196
C         -1.14895       96.59593       64.93851
C         -1.04652       95.49543       65.98171
H         -2.51147       97.99049       66.96700
H         -3.17804       96.09055       64.62427
H         -2.92637       97.87722       64.52214
H         -0.81738       96.29454       63.92288
H         -0.54398       97.46847       65.27783
H         -1.52711       94.56318       65.60898
H          0.01899       95.31477       66.19347
N         -4.67823       95.61240       67.54563
C         -6.08379       95.25330       67.74467
C         -6.86817       96.21862       68.62632
O         -8.07094       96.02867       68.74519
C         -6.14435       93.81605       68.28753
C         -5.57380       93.69559       69.71244
C         -4.88016       92.38244       69.87005
O         -3.81547       92.20505       69.29800
O         -5.38000       91.39907       70.63113
H         -3.95552       94.94030       67.83819
H         -6.56492       95.24133       66.74026
H         -5.54506       93.21059       67.57043
H         -7.17252       93.39075       68.27608
H         -6.39174       93.84969       70.44933
H         -4.79822       94.46344       69.92951
N         -6.27583       97.26697       69.27038
C         -7.00751       98.21795       70.08384
H         -8.09591       98.00141       70.12080
H         -6.60956       98.19975       71.11964
H         -6.87232       99.23688       69.66400
H         -5.26110       97.41688       69.19490
Ca        -3.78440       89.98019       71.32400
O         -7.05828       89.68028       72.45556
H         -7.39071       89.04201       71.77889
H         -7.85905       90.18634       72.74075
O         -3.09778       88.50995       68.64595
H         -2.41174       87.90579       69.02666
H         -2.82670       88.63098       67.70141

Ca 1.0



