%chk=apoCaM-CA-Ng.loop1.water3.frame258.chk
%nprocshared=20
%mem=10GB
%nosave
#b3lyp/svp scf=(tight,noincore,xqc) Test 
#IOP(5/87=12) Density=Current Pop=(MK,readradii) iop(6/33=2) iop(6/42=6)

apoCaM-CA-Ng.loop1.water3.frame258 

   0  1 
C         45.27845       26.08341       -7.69026
C         43.83379       25.80066       -7.40580
O         43.41820       25.96735       -6.26797
H         45.91233       25.42088       -7.06328
H         45.52646       25.89996       -8.75670
H         45.50522       27.14188       -7.44733
N         43.01202       25.33769       -8.39061
C         41.61788       24.97876       -8.16230
C         41.47346       23.47699       -8.32450
O         40.64831       23.01865       -9.09807
C         40.66276       25.81684       -9.04809
C         40.88969       25.69088      -10.53475
O         40.00013       25.27022      -11.25562
O         42.04443       26.10320      -11.09067
H         43.41232       25.17383       -9.32534
H         41.32869       25.21311       -7.12358
H         40.76996       26.88903       -8.77841
H         39.61964       25.51592       -8.80876
N         42.31498       22.64392       -7.64335
C         42.32809       21.19655       -7.81495
C         42.52295       20.50662       -6.46328
O         43.50886       20.82624       -5.81328
C         43.47740       20.81139       -8.77239
C         43.28303       21.45428      -10.16288
C         44.38823       21.11662      -11.17382
C         44.52235       19.62404      -11.52288
N         43.29100       19.07034      -12.09003
H         43.05908       23.06474       -7.06657
H         41.40310       20.87031       -8.30811
H         43.48130       19.70571       -8.87803
H         44.45448       21.13320       -8.34964
H         43.28730       22.55897      -10.05640
H         42.29480       21.16248      -10.57791
H         45.36116       21.48071      -10.77890
H         44.17364       21.67685      -12.11075
H         44.81974       19.03883      -10.62724
H         45.33975       19.52575      -12.27131
H         42.53167       19.05138      -11.37255
H         42.98761       19.63147      -12.91898
H         43.47186       18.08731      -12.39599
N         41.70596       19.53174       -5.94753
C         40.50775       18.96527       -6.55937
C         40.82712       18.36780       -7.92864
O         40.32160       18.84826       -8.93258
C         39.33754       19.97186       -6.53073
C         38.87025       20.27716       -5.12901
O         39.47865       19.73934       -4.05386
O         37.88683       20.97815       -4.96416
H         41.98147       19.12473       -5.03942
H         40.14676       18.11917       -5.93599
H         38.47244       19.50541       -7.02473
H         39.58280       20.91112       -7.06071
N         41.64804       17.28616       -8.06422
C         42.13584       16.53793       -6.91547
C         42.96059       15.31721       -7.27702
O         43.33519       15.15924       -8.42982
H         41.84706       16.94830       -9.01802
H         41.23286       16.17496       -6.38303
H         42.74058       17.17929       -6.24288
N         43.24660       14.34909       -6.35520
C         42.73374       14.35430       -4.98536
C         41.47239       13.51232       -4.91026
O         41.11968       12.85587       -5.88200
C         43.81082       13.94625       -3.95109
C         44.34584       12.54649       -4.11601
O         44.16495       11.63974       -3.13705
O         44.98652       12.23543       -5.10673
H         43.72201       13.50335       -6.70035
H         42.42364       15.37923       -4.70026
H         43.36802       14.02944       -2.93470
H         44.66034       14.66065       -3.99868
N         40.69675       13.54230       -3.79191
C         39.43680       12.82681       -3.68132
C         38.32351       13.36251       -4.57316
O         37.24071       12.79785       -4.50027
H         41.01020       14.09028       -2.97652
H         39.07269       12.91567       -2.63438
H         39.60894       11.74856       -3.88955
N         38.47579       14.43873       -5.40739
C         37.38321       14.99228       -6.20635
C         37.69510       14.88593       -7.68997
O         38.69626       15.42785       -8.14178
C         37.12699       16.46889       -5.82678
C         36.75378       16.61695       -4.34901
O         36.07546       16.97011       -6.61270
H         39.38374       14.91794       -5.46783
H         36.43784       14.44141       -6.00788
H         38.05666       17.04767       -6.02775
H         36.16381       17.95882       -6.62071
H         37.57384       16.25123       -3.69720
H         36.57462       17.68787       -4.11436
H         35.82791       16.04422       -4.12679
N         36.83476       14.22199       -8.51604
C         37.00954       14.11351       -9.96369
C         37.03561       15.46195      -10.67542
O         37.50995       15.50147      -11.79799
C         35.88290       13.25256      -10.62977
C         34.46400       13.82967      -10.32664
C         36.00861       11.77900      -10.21382
C         33.33679       13.18048      -11.12503
H         36.02076       13.77042       -8.07786
H         37.99732       13.63311      -10.15010
H         36.04492       13.28428      -11.73127
H         34.43800       14.90705      -10.58280
H         34.21476       13.73464       -9.25017
H         35.27329       11.15108      -10.75630
H         37.01755       11.39983      -10.48290
H         35.85601       11.65052       -9.12307
H         33.23691       12.10323      -10.88863
H         32.37747       13.67600      -10.86032
H         33.51345       13.31496      -12.21251
N         36.44611       16.57061      -10.13635
C         36.34947       17.83964      -10.86079
C         36.99253       18.95935      -10.07062
O         37.37166       18.75731       -8.93696
C         34.87016       18.15255      -11.20026
C         33.96441       18.25987       -9.96346
O         34.37850       17.14631      -12.04803
H         36.00649       16.50276       -9.21210
H         36.90378       17.77699      -11.82097
H         34.84686       19.12932      -11.73857
H         33.65115       17.54917      -12.59035
H         33.91114       17.29510       -9.41752
H         34.32935       19.04800       -9.27320
H         32.93284       18.52263      -10.27869
N         37.17069       20.18162      -10.65816
C         37.79804       21.31873       -9.98260
C         36.96430       21.81934       -8.80362
O         35.89380       21.27527       -8.54947
C         38.10160       22.44847      -11.01171
C         36.86489       23.06371      -11.67571
O         38.95666       21.93661      -12.00452
H         36.89061       20.27515      -11.64168
H         38.78261       20.99084       -9.58405
H         38.61302       23.27147      -10.47380
H         39.61905       22.64261      -12.22632
H         36.30718       22.32009      -12.27915
H         36.18716       23.49922      -10.91334
H         37.18927       23.87829      -12.35908
N         37.38415       22.87775       -8.04932
C         36.60388       23.45178       -6.95880
C         37.43780       23.84448       -5.73161
O         36.84567       24.31130       -4.77173
C         35.75884       24.62274       -7.49869
C         36.58574       25.75614       -8.12779
C         35.71433       26.91253       -8.64668
C         34.76816       26.50075       -9.79097
N         34.02131       27.65411      -10.29138
H         38.24114       23.36987       -8.33500
H         35.86655       22.70141       -6.59278
H         35.12758       25.03053       -6.67925
H         35.08216       24.19620       -8.26807
H         37.18859       25.36449       -8.97426
H         37.27876       26.16135       -7.35916
H         36.39775       27.70246       -9.02681
H         35.12352       27.33860       -7.80669
H         34.04041       25.73959       -9.43947
H         35.36214       26.06189      -10.62338
H         33.44200       28.06685       -9.52450
H         34.68005       28.37508      -10.66511
H         33.38775       27.34283      -11.06297
N         38.79229       23.64309       -5.65493
C         39.56234       23.92308       -4.44193
C         39.57480       25.41003       -4.13894
O         40.02330       26.18301       -4.97447
C         41.01539       23.40899       -4.59453
C         41.86260       23.52409       -3.31729
C         41.38626       22.58172       -2.25259
O         41.01007       23.00414       -1.17115
O         41.40016       21.25574       -2.49024
H         39.28710       23.21932       -6.44691
H         39.10158       23.35718       -3.60564
H         41.52394       23.98944       -5.37877
H         41.00475       22.34638       -4.91662
H         41.86518       24.57387       -2.95174
H         42.91117       23.24708       -3.55898
N         39.12569       25.87300       -2.93840
C         39.16348       27.27153       -2.55803
H         39.58820       27.91908       -3.35403
H         38.13599       27.62204       -2.32948
H         39.79266       27.38547       -1.64977
H         38.75869       25.20402       -2.24550
Ca        40.74830       19.75144       -0.93852
O         38.22064       17.75966       -1.27699
H         37.53086       17.97684       -0.60062
H         38.52704       16.84944       -1.03561
O         37.68743       21.39294       -1.81218
H         37.35834       22.32589       -1.78085
H         38.59099       21.46386       -2.20539
O         38.54576       20.26491        1.03519
H         38.06475       21.12737        0.96821
H         38.73143       20.15671        2.00135

Ca 1.0



