%chk=apoCaM-CA-Ng.loop2.water3.frame277.chk
%nprocshared=20
%mem=10GB
%nosave
#b3lyp/svp scf=(tight,noincore,xqc) Test 
#IOP(5/87=12) Density=Current Pop=(MK,readradii) iop(6/33=2) iop(6/42=6)

apoCaM-CA-Ng.loop2.water3.frame277 

   -2  1 
C         35.44258       49.29536       40.39476
C         36.51871       50.13804       41.01994
O         37.47526       49.57986       41.53368
H         34.62641       49.92120       39.97635
H         35.87098       48.67759       39.57820
H         35.00584       48.62386       41.16481
N         36.43361       51.49847       41.00729
C         37.41364       52.37064       41.65175
C         37.33399       52.18972       43.15683
O         36.25645       52.36546       43.71070
C         37.12187       53.84209       41.28679
C         38.13035       54.82348       41.83255
O         39.19039       54.41580       42.55843
O         37.98965       56.01328       41.60267
H         35.63381       51.92996       40.51836
H         38.42844       52.12517       41.26425
H         36.11099       54.12048       41.65751
H         37.12544       53.93866       40.17933
N         38.43108       51.83786       43.88842
C         38.35474       51.59005       45.32614
C         37.39664       50.44625       45.59217
O         36.62273       50.52634       46.53493
C         39.73526       51.30298       45.91875
H         39.33584       51.72008       43.40608
H         37.97770       52.50687       45.83355
H         39.65036       51.15725       47.01796
H         40.19087       50.39963       45.46413
H         40.40129       52.17589       45.74212
N         37.31140       49.41319       44.70249
C         36.27852       48.38908       44.71569
C         36.40753       47.53554       45.95834
O         35.49173       47.48411       46.76803
C         34.88063       49.04374       44.54526
C         33.77816       48.06116       44.25639
O         32.51452       48.50700       44.13001
O         34.01313       46.87288       44.10732
H         37.98015       49.38180       43.92082
H         36.44231       47.73483       43.82879
H         34.90957       49.75191       43.68955
H         34.61422       49.61812       45.45680
N         37.55164       46.82900       46.16272
C         37.78344       46.01259       47.34037
C         37.96577       44.54893       47.01393
O         38.24067       43.79854       47.93973
H         38.30189       46.88001       45.45491
H         36.95131       46.09617       48.06984
H         38.70648       46.38573       47.83455
N         37.85609       44.06063       45.74236
C         38.12554       42.66839       45.40554
C         39.37254       42.58501       44.55158
O         39.92401       43.60525       44.15846
C         36.92651       42.03870       44.66773
C         35.71626       41.88265       45.54966
N         34.54478       42.47803       45.23297
O         35.78661       41.18135       46.54804
H         37.62633       44.69561       44.96344
H         38.34212       42.07248       46.31940
H         37.18686       41.01999       44.30915
H         36.69171       42.66108       43.77925
H         34.46185       43.06784       44.39389
H         33.71430       42.33955       45.82697
N         39.89866       41.36447       44.27220
C         41.12075       41.15718       43.52159
C         40.85927       40.27010       42.33729
O         40.06894       39.34109       42.44932
H         39.42919       40.52641       44.64956
H         41.84111       40.63820       44.18742
H         41.59304       42.11035       43.19699
N         41.55231       40.44531       41.17795
C         41.36323       39.55610       40.03686
C         39.97572       39.70843       39.41914
O         39.57011       38.81698       38.68818
C         42.49222       39.69846       38.98240
C         42.56826       41.08135       38.31627
O         43.73472       39.35641       39.54880
H         42.26518       41.18821       41.14439
H         41.43834       38.51453       40.42579
H         42.29545       38.96013       38.17476
H         44.01827       40.09209       40.15148
H         43.38565       41.08511       37.56490
H         41.62363       41.31281       37.79628
H         42.77065       41.88434       39.05359
N         39.20096       40.81098       39.65645
C         37.81935       40.94343       39.18829
C         36.91375       41.37305       40.32893
O         37.40791       41.71933       41.39234
C         37.67607       41.88810       37.95205
C         37.91126       43.41090       38.17795
C         38.49960       41.36014       36.76810
C         39.30941       43.85828       38.61051
H         39.59931       41.56759       40.22000
H         37.45927       39.94300       38.86218
H         36.61517       41.81483       37.62430
H         37.17835       43.79818       38.91772
H         37.69491       43.91890       37.21177
H         38.30431       41.96511       35.85766
H         39.58020       41.39215       36.98360
H         38.21896       40.30835       36.54563
H         39.52923       43.56268       39.64868
H         40.09169       43.47980       37.92203
H         39.34993       44.96786       38.60173
N         35.55860       41.36714       40.16983
C         34.63310       41.81363       41.20458
C         33.77498       40.64516       41.69942
O         32.78561       40.86949       42.38180
C         33.82054       43.00198       40.63539
C         33.44344       44.01946       41.71455
O         32.54112       43.54031       42.66512
O         32.88982       45.17697       41.16223
H         35.15901       41.03571       39.27849
H         35.19807       42.20501       42.07369
H         32.96680       42.67391       40.01298
H         34.49706       43.58101       39.96911
N         34.14331       39.35166       41.44487
C         33.37601       38.18708       41.87382
C         32.08831       38.10216       41.05769
O         32.18825       38.12559       39.83776
C         34.19456       36.89646       41.62530
C         33.47066       35.67186       42.13578
C         33.35791       35.43071       43.51734
C         32.89184       34.76537       41.23263
C         32.67381       34.30256       43.98291
C         32.19904       33.64606       41.70251
C         32.09102       33.41364       43.07594
H         35.02817       39.17356       40.94794
H         33.19985       38.25944       42.96802
H         35.18913       36.95032       42.12131
H         34.38150       36.80822       40.53231
H         33.80154       36.11274       44.23237
H         32.96016       34.93537       40.16574
H         32.59206       34.11836       45.04666
H         31.74346       32.96012       41.00053
H         31.55549       32.54488       43.43666
N         30.85135       37.95381       41.62260
C         29.61364       37.83440       40.85981
C         29.37896       38.99993       39.92324
O         29.03910       38.79567       38.76702
C         28.52460       37.83432       41.94183
C         29.22798       37.15426       43.08866
C         30.60166       37.81717       43.04324
H         29.61755       36.86535       40.31063
H         28.31873       38.87334       42.28750
H         27.56409       37.37851       41.61971
H         28.71277       37.22066       44.06976
H         29.34621       36.07994       42.81504
H         30.60544       38.82936       43.50419
H         31.31090       37.14546       43.56230
N         29.54926       40.26505       40.39099
C         29.27571       41.47987       39.63466
C         30.04084       41.50118       38.32647
O         29.42874       41.74843       37.29586
C         29.59990       42.72303       40.49573
C         28.67998       42.79951       41.73404
C         28.97543       43.99536       42.58146
O         28.84518       45.12101       42.12763
O         29.36231       43.82912       43.86130
H         29.90597       40.35907       41.35263
H         28.19042       41.52890       39.39076
H         29.44134       43.63945       39.88556
H         30.66496       42.69339       40.81202
H         28.79993       41.90106       42.37214
H         27.61909       42.85188       41.41039
N         31.36741       41.20867       38.27582
C         32.09918       41.20879       37.02703
H         33.14991       40.89522       37.20007
H         31.63047       40.49942       36.31040
H         32.09579       42.22897       36.58746
H         31.86342       40.94489       39.13869
Ca        31.54629       45.56782       42.94427
O         29.87563       46.26171       45.56214
H         29.93564       46.99873       46.21998
H         29.66346       45.46106       46.10493
O         32.77258       45.12382       45.92436
H         33.26730       45.81626       46.42983
H         32.69337       44.36858       46.55735
O         31.00752       48.09927       41.40889
H         31.68252       48.01963       40.68898
H         31.14332       49.00778       41.77790

Ca 1.0



