%chk=apoCaM-CA-Ng.loop4.water5.frame875.chk
%nprocshared=20
%mem=10GB
%nosave
#b3lyp/svp scf=(tight,noincore,xqc) Test 
#IOP(5/87=12) Density=Current Pop=(MK,readradii) iop(6/33=2) iop(6/42=6)

apoCaM-CA-Ng.loop4.water5.frame875 

   -3  1 
C         35.31355       35.83074        1.75600
C         35.66394       37.22502        1.32636
O         36.09234       37.40419        0.19580
H         34.53860       35.41644        1.07781
H         36.21074       35.18886        1.71444
H         34.92258       35.81027        2.79472
N         35.48058       38.27234        2.18018
C         35.73805       39.66850        1.84723
C         34.86905       40.08422        0.66864
O         35.37288       40.59838       -0.31858
C         37.25374       39.90523        1.63768
C         37.58361       41.36055        1.44813
O         38.13764       41.73743        0.42764
O         37.28145       42.25364        2.40986
H         35.10144       38.07933        3.11999
H         35.42262       40.27980        2.72248
H         37.61889       39.32292        0.76453
H         37.80062       39.54963        2.53756
N         33.53032       39.83353        0.70482
C         32.62711       40.14568       -0.40411
C         32.44332       41.65926       -0.55071
O         32.64508       42.35944        0.43219
C         31.24607       39.42733       -0.22265
C         30.49432       39.89099        1.05812
C         31.44665       37.89856       -0.26424
C         29.08572       39.30918        1.18442
H         33.16955       39.34141        1.53316
H         33.09322       39.73924       -1.32496
H         30.59972       39.68060       -1.08306
H         30.38149       40.99517        1.03013
H         31.05707       39.62718        1.97627
H         30.47630       37.36401       -0.25573
H         31.96095       37.61013       -1.20617
H         32.05497       37.54149        0.59239
H         28.59715       39.72676        2.09005
H         28.47638       39.57931        0.29630
H         29.11069       38.20682        1.29726
N         32.02427       42.26827       -1.70717
C         31.84343       41.59629       -2.99743
C         33.16269       41.08209       -3.57750
O         33.12715       40.29445       -4.51233
C         31.10351       42.49398       -4.01748
C         31.87240       43.71749       -4.45232
O         32.16537       43.86317       -5.62805
O         32.20696       44.67653       -3.56854
H         31.83609       43.27916       -1.65018
H         31.17837       40.73001       -2.83517
H         30.13232       42.81620       -3.58182
H         30.87483       41.87971       -4.91674
N         34.36122       41.46073       -3.04938
C         35.64042       40.88456       -3.41863
C         36.06418       41.14307       -4.84216
O         36.12494       42.29517       -5.24744
H         34.38434       42.15709       -2.29167
H         35.63034       39.79627       -3.19490
H         36.42054       41.34438       -2.77330
N         36.50310       40.10314       -5.61057
C         37.16971       40.27352       -6.89886
C         36.53333       39.47977       -8.03541
O         37.00362       39.61902       -9.15678
C         38.67095       39.94129       -6.72057
C         38.94110       38.59480       -6.09613
O         39.56242       38.52432       -4.90312
O         38.60842       37.56560       -6.65437
H         36.47339       39.15313       -5.20943
H         37.12148       41.33743       -7.22022
H         39.09988       40.70840       -6.03938
H         39.20469       40.02250       -7.69178
N         35.44976       38.67005       -7.85762
C         34.77196       38.00552       -8.96330
C         35.56111       36.91288       -9.66662
O         35.00151       36.33896      -10.58861
H         35.03038       38.57077       -6.92257
H         34.46539       38.77207       -9.70828
H         33.84591       37.52919       -8.57300
N         36.82107       36.53132       -9.28874
C         37.57288       35.43409       -9.90537
C         36.89851       34.08048       -9.69780
O         37.33977       33.10818      -10.29446
C         37.87094       35.71924      -11.40319
C         38.75104       36.96836      -11.61751
C         40.17748       36.82433      -11.12193
N         41.03997       37.85830      -11.24755
O         40.57040       35.77808      -10.62629
H         37.27217       37.01365       -8.50932
H         38.54819       35.33737       -9.38774
H         36.92148       35.84966      -11.95939
H         38.39467       34.85438      -11.86644
H         38.27147       37.84424      -11.13115
H         38.80737       37.17029      -12.70878
H         40.73731       38.74803      -11.66927
H         42.01449       37.76811      -10.92249
N         35.88108       33.92614       -8.80178
C         35.20885       32.66122       -8.53545
C         35.48609       32.19175       -7.11414
O         35.81162       31.02457       -6.94342
C         33.67850       32.76158       -8.82779
C         32.93036       33.81485       -7.98905
C         33.43130       33.02938      -10.31979
H         35.57461       34.73798       -8.25426
H         35.58720       31.85916       -9.20978
H         33.22620       31.77081       -8.59762
H         31.84908       33.80094       -8.24249
H         33.00251       33.59253       -6.90735
H         33.31120       34.83869       -8.18441
H         33.90174       32.23508      -10.93724
H         32.34107       33.02770      -10.53514
H         33.84798       34.01068      -10.62320
N         35.36327       33.03201       -6.04589
C         35.43649       32.59270       -4.66049
C         36.56783       33.26571       -3.90393
O         36.66698       34.48475       -3.92428
C         34.10100       32.94540       -3.97654
C         34.07426       32.50736       -2.53111
N         33.94761       33.41668       -1.53595
O         34.17688       31.32076       -2.25756
H         35.14902       34.02648       -6.20723
H         35.55758       31.48829       -4.59806
H         33.26436       32.44969       -4.51419
H         33.94206       34.04492       -4.04170
H         33.87063       34.42314       -1.74370
H         33.93746       33.11524       -0.55047
N         37.37412       32.50942       -3.10203
C         38.30883       33.05510       -2.11476
C         38.97455       31.88544       -1.40092
O         38.25300       31.08022       -0.82815
C         37.51491       33.90273       -1.08481
C         38.34795       34.55773       -0.01458
C         38.51319       33.93377        1.23067
C         38.89252       35.83624       -0.21994
C         39.21847       34.57188        2.25369
C         39.59071       36.47848        0.80800
C         39.75602       35.84991        2.04709
O         40.42077       36.48561        3.03281
H         37.24774       31.48491       -3.13606
H         39.06871       33.68529       -2.62640
H         36.74216       33.26218       -0.60487
H         36.93484       34.70954       -1.57393
H         38.07769       32.96109        1.41140
H         38.75467       36.34572       -1.16573
H         39.33185       34.08042        3.21055
H         39.99179       37.47110        0.64568
H         40.54508       36.08937        3.90726
N         40.32631       31.69748       -1.42521
C         40.96598       30.51650       -0.84899
C         41.94685       30.93761        0.23299
O         43.04139       31.35597       -0.11772
C         41.63603       29.72552       -2.00436
C         42.24225       28.35847       -1.63626
C         43.47046       28.44867       -0.77783
O         44.46166       29.03638       -1.18244
O         43.49710       27.85066        0.42795
H         40.91989       32.38928       -1.90798
H         40.20786       29.84372       -0.41415
H         42.40462       30.35254       -2.50916
H         40.83898       29.52059       -2.75288
H         42.54151       27.84896       -2.57879
H         41.46879       27.73421       -1.14045
N         41.65286       30.94328        1.57002
C         40.34635       30.66834        2.16773
C         39.93118       29.21492        2.05421
O         40.67172       28.33876        2.47907
C         40.35194       31.08735        3.65664
C         38.94919       31.01482        4.28439
C         38.97056       31.50641        5.70079
O         38.30070       32.47478        6.02274
O         39.72178       30.87750        6.62486
H         42.40015       31.27555        2.20134
H         39.60410       31.31881        1.66714
H         40.69859       32.14224        3.72082
H         41.06463       30.45469        4.23124
H         38.57131       29.97072        4.27837
H         38.25071       31.64477        3.68986
N         38.70863       28.89863        1.54331
C         38.22246       27.54015        1.46752
H         37.19588       27.53267        1.04106
H         38.88578       26.93360        0.81732
H         38.18165       27.09655        2.48529
H         38.08103       29.65103        1.22535
Ca        37.61693       31.81362        8.93533
O         36.35165       30.48232       11.45595
H         36.97107       29.71396       11.37551
H         35.72537       30.37626       10.69615
O         40.41730       33.48131        8.23100
H         41.36701       33.75968        8.25398
H         39.98169       34.13298        7.62608
O         40.39969       30.54720       10.29829
H         40.92858       29.71215       10.23965
H         40.39004       30.76750       11.26364
O         38.24199       28.61186        8.60166
H         38.13948       28.61976        7.61678
H         39.04505       28.05556        8.76324
O         39.03373       33.47505       11.19394
H         39.99098       33.69334       11.06600
H         38.91503       33.44432       12.17632

Ca 1.0



