%chk=apoCaM-CA-Ng.loop1.water4.frame685.chk
%nprocshared=20
%mem=10GB
%nosave
#b3lyp/svp scf=(tight,noincore,xqc) Test 
#IOP(5/87=12) Density=Current Pop=(MK,readradii) iop(6/33=2) iop(6/42=6)

apoCaM-CA-Ng.loop1.water4.frame685 

   0  1 
C         86.54874       38.98097       63.06892
C         85.16016       39.04862       62.50806
O         84.99640       38.73509       61.33727
H         87.21755       39.65338       62.49257
H         86.57306       39.27491       64.13821
H         86.92331       37.93831       62.98099
N         84.10277       39.42193       63.28942
C         82.72772       39.41725       62.80295
C         82.04173       40.77113       62.84387
O         82.46771       41.66640       63.55545
C         81.91277       38.32895       63.52750
C         81.75038       38.36414       65.03947
O         82.24217       39.30359       65.88262
O         81.12392       37.44537       65.54228
H         84.28154       39.66032       64.27215
H         82.72676       39.13235       61.72881
H         82.40178       37.35839       63.29183
H         80.89396       38.30311       63.08462
N         80.96389       40.99253       62.03274
C         80.19094       42.23200       62.04295
C         79.38392       42.35141       63.33080
O         78.92305       43.44314       63.63460
C         79.26789       42.27377       60.79790
C         78.35469       43.50880       60.70973
C         77.52754       43.48971       59.41813
C         76.51425       44.64260       59.39604
N         75.72939       44.62664       58.16213
H         80.69043       40.24594       61.37470
H         80.90166       43.08674       61.97329
H         78.62297       41.36733       60.79435
H         79.91749       42.24235       59.89463
H         78.96163       44.43986       60.74797
H         77.64741       43.49762       61.56458
H         76.96882       42.53029       59.35149
H         78.20949       43.56745       58.54300
H         77.04532       45.61622       59.48231
H         75.82618       44.54000       60.26552
H         76.35604       44.77285       57.33777
H         75.22540       43.71503       58.06551
H         75.02524       45.39896       58.19442
N         79.14646       41.26801       64.12894
C         78.37029       41.35061       65.36699
C         79.10584       42.24230       66.37412
O         80.25575       42.56841       66.10861
C         78.15912       39.92043       65.92335
C         77.46075       39.03301       64.92563
O         78.07483       37.92847       64.45881
O         76.33786       39.30896       64.53404
H         79.50326       40.34767       63.83581
H         77.38310       41.79100       65.11690
H         77.54848       39.91860       66.83855
H         79.14872       39.47896       66.17193
N         78.57999       42.70594       67.54874
C         77.24431       42.49454       68.08508
C         76.13183       43.16012       67.30628
O         76.35961       43.76353       66.26814
H         79.20876       43.26810       68.14270
H         77.21436       42.94632       69.10051
H         77.03614       41.42018       68.21807
N         74.86403       43.08056       67.79965
C         73.69167       43.64627       67.13920
C         73.74553       45.16166       66.97215
O         73.12547       45.65653       66.04095
C         72.38838       43.21377       67.86136
C         72.25433       43.63350       69.30933
O         71.15896       43.26354       69.99902
O         73.12018       44.28008       69.87572
H         74.72780       42.55046       68.67443
H         73.64354       43.20440       66.11847
H         72.33518       42.10372       67.83673
H         71.51354       43.60832       67.30148
N         74.41212       45.96284       67.85249
C         74.43941       47.41706       67.75985
C         75.84853       47.97829       67.72171
O         75.97709       49.19376       67.76536
H         74.89511       45.53471       68.65512
H         73.93782       47.82023       68.66585
H         73.88026       47.79147       66.87399
N         76.94947       47.17246       67.64496
C         78.32537       47.66150       67.67754
C         79.05424       47.00262       68.83452
O         79.04683       45.78205       68.91198
C         79.05345       47.39599       66.33132
C         79.23070       45.91722       65.94599
O         78.41556       48.09308       65.29023
H         76.82088       46.15522       67.56425
H         78.34799       48.76530       67.81971
H         80.07768       47.81890       66.42749
H         77.54677       47.64638       65.11249
H         79.83225       45.37035       66.69756
H         78.25027       45.41862       65.82455
H         79.78194       45.84825       64.98609
N         79.68875       47.74112       69.78983
C         80.39433       47.12603       70.91481
C         79.60982       47.35016       72.21030
O         79.96254       46.75930       73.21895
C         81.87020       47.65271       70.98887
C         82.57616       47.54017       69.60682
C         82.68723       46.89839       72.06338
C         83.97533       48.16963       69.57617
H         79.66320       48.77145       69.72699
H         80.43303       46.02423       70.76861
H         81.83358       48.73207       71.25697
H         81.98048       48.08723       68.84577
H         82.64376       46.47699       69.29201
H         82.26594       47.02435       73.07567
H         82.73618       45.81452       71.82077
H         83.71726       47.29200       72.14784
H         84.68817       47.63352       70.23337
H         84.38395       48.11910       68.54535
H         83.92434       49.23658       69.88274
N         78.50804       48.15766       72.25378
C         77.72423       48.38968       73.46288
C         77.79091       49.86166       73.84147
O         78.43142       50.62775       73.13404
C         76.27119       47.88149       73.25102
C         75.50939       48.61253       72.13741
O         76.29338       46.51080       72.94390
H         78.20204       48.65387       71.40785
H         78.14675       47.82339       74.32048
H         75.68454       48.03686       74.18500
H         76.41411       46.02284       73.80008
H         74.47617       48.20946       72.07224
H         75.44523       49.69940       72.35296
H         75.98761       48.46206       71.14745
N         77.14442       50.32812       74.95159
C         77.14525       51.74234       75.32776
C         77.65974       51.99071       76.74576
O         77.93043       53.14292       77.05639
C         75.70197       52.28728       75.16378
C         75.60687       53.81307       75.25323
O         74.84963       51.72301       76.13000
H         76.59073       49.66403       75.50971
H         77.80748       52.30414       74.63392
H         75.34282       52.02923       74.13922
H         74.55510       50.83993       75.78710
H         74.55755       54.12814       75.07211
H         75.89868       54.18944       76.25331
H         76.25220       54.28110       74.47976
N         77.77292       50.99631       77.67693
C         78.08692       51.25541       79.08445
C         78.17613       49.93600       79.83192
O         77.24642       49.14322       79.73924
C         76.98272       52.13269       79.73367
C         77.38408       52.64046       81.12843
C         76.27689       53.52198       81.72344
C         76.71661       54.15725       83.04903
N         75.64659       54.98095       83.61238
H         77.58244       50.02480       77.39646
H         79.05828       51.79624       79.14272
H         76.02666       51.56583       79.77735
H         76.79924       53.03806       79.12334
H         78.31272       53.24495       81.02401
H         77.58823       51.79061       81.81490
H         75.36714       52.90311       81.88472
H         76.02959       54.33996       81.01120
H         77.61119       54.79535       82.86925
H         76.99191       53.36309       83.77735
H         75.98435       55.42557       84.49637
H         75.37567       55.73412       82.93866
H         74.81376       54.38647       83.82893
N         79.24887       49.63613       80.61450
C         79.36977       48.34592       81.28422
C         79.58513       47.23558       80.26061
O         78.75688       46.33665       80.23185
C         80.45228       48.34238       82.38813
C         80.06176       49.28028       83.54335
C         81.08323       49.24520       84.64242
O         81.65961       50.26763       84.97708
O         81.35513       48.08918       85.27833
H         79.97863       50.35221       80.75160
H         78.41640       48.13328       81.82296
H         81.44963       48.62344       81.99930
H         80.52615       47.31054       82.79906
H         79.08484       48.95989       83.96807
H         79.95410       50.32073       83.16835
N         80.62428       47.18117       79.37216
C         81.68177       48.15983       79.21413
H         82.66228       47.67221       79.39555
H         81.66464       48.54909       78.17480
H         81.59600       49.02522       79.88552
H         80.66427       46.37318       78.73135
Ca        83.43732       41.22942       66.01192
O         83.50466       44.56834       65.53378
H         83.75960       44.59859       64.57759
H         83.55452       45.51061       65.83415
O         82.57370       43.65059       68.39488
H         83.16251       43.96754       69.12513
H         81.77862       43.28580       68.85823
O         85.57353       42.10830       64.23038
H         86.49108       42.39845       64.46006
H         85.27256       42.74395       63.53399
O         81.50727       40.38665       68.58011
H         80.59477       40.76916       68.60643
H         81.36371       39.41030       68.49959

Ca 1.0



