%chk=apoCaM-CA-Ng.loop1.water5.frame355.chk
%nprocshared=20
%mem=10GB
%nosave
#b3lyp/svp scf=(tight,noincore,xqc) Test 
#IOP(5/87=12) Density=Current Pop=(MK,readradii) iop(6/33=2) iop(6/42=6)

apoCaM-CA-Ng.loop1.water5.frame355 

   0  1 
C         58.53950      100.43764       45.47229
C         58.64137      101.49575       44.41202
O         59.64482      102.19191       44.35969
H         57.57786       99.88502       45.40270
H         59.36834       99.70919       45.35172
H         58.60303      100.90645       46.47548
N         57.63446      101.66043       43.51190
C         57.67807      102.63773       42.42968
C         57.42979      104.06536       42.91784
O         57.35418      104.94080       42.07311
C         56.62407      102.28931       41.34864
C         56.86297      100.93391       40.72888
O         56.76741       99.80980       41.46370
O         57.13061      100.84505       39.54315
H         56.82209      101.02890       43.57513
H         58.66587      102.58286       41.92062
H         56.68536      103.04880       40.53568
H         55.59822      102.32619       41.77429
N         57.24470      104.38981       44.23206
C         56.82774      105.72312       44.66291
C         57.84449      106.35928       45.60100
O         58.27244      105.67255       46.51773
C         55.43567      105.62507       45.30860
C         54.43274      105.06965       44.27431
C         52.96181      105.18519       44.68050
C         52.49165      106.65038       44.72891
N         51.04863      106.72957       44.94007
H         57.31699      103.66627       44.95968
H         56.68014      106.38084       43.80269
H         55.14221      106.64477       45.61597
H         55.44505      104.98478       46.21761
H         54.67141      103.99888       44.09189
H         54.54860      105.60830       43.30868
H         52.78133      104.67488       45.65086
H         52.37109      104.66461       43.89499
H         52.73682      107.14838       43.76323
H         53.00767      107.19969       45.54399
H         50.54734      106.25882       44.15156
H         50.79176      106.27649       45.84634
H         50.76386      107.73538       44.96490
N         58.26711      107.66760       45.51535
C         57.79630      108.70356       44.58790
C         56.28397      108.89851       44.71763
O         55.55456      108.57799       43.79029
C         58.29055      108.50065       43.13294
C         59.78205      108.60539       42.98083
O         60.58381      108.79917       44.04468
O         60.27308      108.54069       41.86561
H         58.94262      107.98419       46.22912
H         58.25535      109.67562       44.87036
H         57.87355      109.32376       42.52704
H         57.96491      107.55067       42.68211
N         55.71724      109.44584       45.83430
C         56.51689      110.03320       46.89804
C         55.70613      110.70574       47.99244
O         54.49453      110.54820       48.03597
H         54.68880      109.52075       45.86742
H         57.11789      110.83396       46.41969
H         57.18570      109.27738       47.35930
N         56.29309      111.54563       48.89814
C         57.71244      111.89776       48.88022
C         57.90506      113.23739       48.19120
O         56.92808      113.89128       47.84813
C         58.31559      111.83522       50.29967
C         57.67144      112.79066       51.26850
O         57.72243      113.99535       51.07827
O         57.05154      112.31755       52.36658
H         55.67796      112.04497       49.56027
H         58.28464      111.16929       48.27304
H         59.40413      112.05352       50.25892
H         58.19598      110.79845       50.68307
N         59.15953      113.68152       47.89844
C         59.41367      114.91852       47.17837
C         58.96509      114.90271       45.72258
O         59.13098      115.92849       45.07837
H         59.97295      113.12639       48.20372
H         60.50806      115.11360       47.17599
H         58.92015      115.75658       47.71709
N         58.41315      113.80224       45.12372
C         57.98914      113.77210       43.72572
C         56.49338      113.53636       43.66113
O         56.01498      112.53925       44.18542
C         58.74198      112.67069       42.94922
C         60.24956      112.93801       42.93155
O         58.26958      112.63638       41.62603
H         58.28640      112.93526       45.66245
H         58.21426      114.73841       43.22276
H         58.54463      111.69245       43.44576
H         58.50140      111.74362       41.25889
H         60.65428      112.96249       43.96399
H         60.76789      112.13270       42.36915
H         60.46224      113.91021       42.43638
N         55.69284      114.43424       43.01941
C         54.23986      114.30359       42.94915
C         53.79207      113.02118       42.26268
O         52.68053      112.58978       42.53852
C         53.56577      115.53527       42.26031
C         54.01619      115.68801       40.77745
C         53.81952      116.81534       43.07971
C         53.30682      116.81148       40.02188
H         56.14161      115.25649       42.59371
H         53.86650      114.25585       43.99779
H         52.46574      115.36209       42.27050
H         53.78802      114.75045       40.23197
H         55.10964      115.86356       40.71000
H         53.24701      117.67093       42.66860
H         53.47400      116.67100       44.12526
H         54.89441      117.08817       43.09474
H         53.64616      116.80954       38.96392
H         52.20765      116.65708       40.04172
H         53.55381      117.80411       40.44886
N         54.54759      112.41134       41.29987
C         54.08647      111.23264       40.56644
C         55.06944      110.07995       40.66228
O         56.17116      110.25331       41.15632
C         53.78615      111.59509       39.08863
C         55.01229      112.12107       38.33268
O         52.77763      112.57029       39.03509
H         55.45557      112.82533       41.04332
H         53.13683      110.86180       41.01074
H         53.43996      110.68598       38.54411
H         51.91944      112.10826       39.22573
H         55.82898      111.36968       38.33381
H         54.73528      112.33367       37.27857
H         55.38581      113.06513       38.78078
N         54.69078      108.84611       40.22458
C         55.51999      107.64089       40.30304
C         56.73429      107.70705       39.36878
O         56.92544      108.70368       38.68657
C         54.64304      106.38119       40.02011
C         54.12050      106.30043       38.57824
O         53.55735      106.37268       40.91348
H         53.72439      108.75558       39.87857
H         55.88295      107.52928       41.34703
H         55.25928      105.47388       40.20622
H         53.28794      105.42551       41.04354
H         53.46533      107.15920       38.32990
H         54.96261      106.27091       37.85651
H         53.52947      105.36839       38.45306
N         57.56239      106.62672       39.25363
C         58.67445      106.52116       38.31290
C         59.96279      106.00233       38.96538
O         60.95309      105.87720       38.25788
C         58.23084      105.64415       37.11328
C         57.63304      104.27307       37.48749
C         57.13933      103.53270       36.23465
C         56.38829      102.24767       36.60893
N         55.89577      101.55471       35.41915
H         57.33457      105.78480       39.79110
H         58.91848      107.51939       37.88723
H         59.08059      105.51400       36.40778
H         57.43608      106.20857       36.57638
H         56.75020      104.43005       38.14146
H         58.37848      103.65480       38.03283
H         58.00422      103.29196       35.57910
H         56.43754      104.18935       35.67439
H         55.52280      102.50504       37.26172
H         57.06806      101.57189       37.16596
H         56.69943      101.25782       34.81978
H         55.36240      100.70531       35.71586
H         55.25745      102.17867       34.87385
N         60.04393      105.70272       40.29641
C         61.26009      105.23028       40.95619
C         61.73473      103.91713       40.36143
O         60.98439      102.95063       40.36886
C         60.99688      105.04695       42.47354
C         62.21877      104.57770       43.28043
C         63.34572      105.56540       43.21943
O         64.43101      105.23162       42.77193
O         63.16545      106.82212       43.66725
H         59.21906      105.84479       40.88589
H         62.04618      106.00759       40.83615
H         60.19253      104.29820       42.61383
H         60.63768      106.00412       42.90292
H         62.55764      103.58579       42.90970
H         61.91886      104.45523       44.34325
N         63.00045      103.81125       39.86587
C         63.55750      102.58035       39.34224
H         64.44737      102.29883       39.94505
H         62.83540      101.73798       39.37681
H         63.87331      102.73510       38.29004
H         63.61838      104.63656       39.88078
Ca        62.83204      109.03789       45.93875
O         63.03629      111.74461       44.42784
H         63.59238      112.10883       45.16147
H         63.49033      112.04086       43.59944
O         64.56816      106.58839       46.68608
H         65.14910      106.73530       45.89779
H         64.91218      107.21838       47.36831
O         63.45480      109.35233       41.55537
H         63.19701      108.43220       41.29551
H         62.74853      109.64082       42.18632
O         65.82100      108.49477       43.39510
H         66.77907      108.70496       43.52819
H         65.81748      107.55938       43.07240
O         65.71908      110.24099       45.98968
H         65.34617      110.46750       46.87847
H         66.23376      109.40891       46.14154

Ca 1.0



