%chk=apoCaM-CA-Ng.loop1.water3.frame202.chk
%nprocshared=20
%mem=10GB
%nosave
#b3lyp/svp scf=(tight,noincore,xqc) Test 
#IOP(5/87=12) Density=Current Pop=(MK,readradii) iop(6/33=2) iop(6/42=6)

apoCaM-CA-Ng.loop1.water3.frame202 

   0  1 
C          7.37744        7.93790       42.46973
C          8.25358        8.11760       43.67450
O          9.28277        7.46215       43.75791
H          6.47656        8.58523       42.52149
H          7.94734        8.19843       41.55355
H          7.04753        6.87999       42.40688
N          7.91328        9.00390       44.65322
C          8.74733        9.24517       45.82752
C          8.80860        8.06373       46.80715
O          9.48937        8.19178       47.80711
C          8.38045       10.58585       46.50914
C          7.04096       10.64037       47.18132
O          6.97552       10.97039       48.48358
O          6.01122       10.46298       46.55138
H          7.06767        9.57519       44.51262
H          9.77584        9.42371       45.46109
H          8.42118       11.39136       45.74312
H          9.15831       10.82076       47.26945
N          8.19512        6.86729       46.57191
C          8.34309        5.68987       47.42907
C          9.18878        4.64861       46.68947
O          8.86289        4.37987       45.54133
C          6.96056        5.07016       47.73659
C          6.09279        5.79271       48.78230
C          5.68746        7.23215       48.44724
C          4.65001        7.72813       49.47361
N          4.32058        9.13630       49.27098
H          7.64879        6.73859       45.71119
H          8.81705        5.94146       48.38693
H          7.12847        4.05812       48.16678
H          6.39204        4.93214       46.79114
H          6.61900        5.78983       49.76296
H          5.16879        5.18279       48.89031
H          5.23741        7.28090       47.43238
H          6.58842        7.87874       48.47702
H          5.03374        7.59768       50.50788
H          3.72530        7.11701       49.38026
H          3.57338        9.41519       49.94687
H          5.16277        9.71912       49.46458
H          3.98203        9.29923       48.29547
N         10.24372        3.95248       47.23636
C         10.74399        4.00938       48.61127
C          9.61821        3.74574       49.60829
O          9.28610        4.63447       50.37966
C         11.53389        5.30927       48.90457
C         12.82741        5.43731       48.15100
O         13.21984        4.51012       47.25722
O         13.56215        6.38266       48.39088
H         10.69633        3.24913       46.63110
H         11.48967        3.19703       48.75900
H         11.83744        5.27666       49.96533
H         10.92859        6.21657       48.73722
N          8.96408        2.55134       49.68383
C          9.35751        1.35915       48.94235
C          8.45232        0.16414       49.23232
O          7.40172        0.34318       49.83202
H          8.19260        2.48993       50.36524
H         10.38761        1.11068       49.27187
H          9.35529        1.54351       47.84861
N          8.78815       -1.11708       48.89295
C         10.06895       -1.50303       48.30958
C         11.02467       -1.92579       49.40941
O         10.61472       -2.05354       50.55641
C          9.91376       -2.59183       47.21975
C          9.38780       -3.91393       47.72938
O          8.13882       -4.01874       48.22123
O         10.08448       -4.91395       47.65925
H          8.15501       -1.85976       49.21967
H         10.52733       -0.62132       47.81627
H         10.91320       -2.76866       46.76468
H          9.24388       -2.22572       46.41330
N         12.34850       -2.09390       49.13496
C         13.33978       -2.41277       50.14955
C         13.55668       -1.31586       51.18426
O         14.38663       -1.52869       52.05616
H         12.67578       -1.98867       48.16294
H         14.31684       -2.58459       49.64854
H         13.04743       -3.35589       50.66094
N         12.86276       -0.13618       51.17588
C         13.03768        0.91338       52.17730
C         11.78104        0.99614       53.03373
O         10.81109        0.31070       52.73767
C         13.31964        2.26450       51.46270
C         14.52400        2.18010       50.52220
O         13.55735        3.27859       52.40309
H         12.15847        0.04287       50.45099
H         13.88377        0.66547       52.85452
H         12.41690        2.51549       50.85744
H         13.33581        4.14104       51.96349
H         14.35478        1.41264       49.73941
H         14.66861        3.15850       50.01559
H         15.44403        1.92798       51.08969
N         11.73437        1.81224       54.12696
C         10.55468        1.94485       54.97758
C          9.95274        3.34179       54.84664
O          8.81101        3.51103       55.25441
C         10.93792        1.60434       56.45622
C         11.60695        0.20941       56.59624
C          9.76002        1.73206       57.44267
C         10.72033       -0.97823       56.21233
H         12.57271        2.35331       54.38006
H          9.76293        1.24607       54.63239
H         11.70326        2.34557       56.78029
H         11.92857        0.07342       57.65249
H         12.52616        0.17489       55.97320
H         10.09546        1.47729       58.47094
H          9.38629        2.77393       57.48967
H          8.92023        1.06486       57.16056
H          9.81448       -1.02573       56.84980
H         10.42052       -0.92465       55.14729
H         11.29021       -1.91955       56.36124
N         10.64811        4.39749       54.32261
C         10.09864        5.74850       54.25878
C         10.37525        6.41519       52.91823
O         11.15995        5.90886       52.13416
C         10.62825        6.58719       55.44556
C         12.15846        6.66925       55.47622
O         10.19646        6.01448       56.65370
H         11.62855        4.27493       54.04101
H          8.99075        5.70046       54.35302
H         10.23836        7.62878       55.37247
H          9.25510        6.30023       56.79006
H         12.54821        7.12807       54.54441
H         12.48016        7.28646       56.34070
H         12.60728        5.66021       55.60008
N          9.69380        7.54448       52.57828
C          9.77435        8.19749       51.26626
C         11.07846        8.98018       51.07408
O         11.91270        8.98923       51.96808
C          8.51989        9.09622       51.04205
C          8.41069       10.30715       51.98341
O          7.35258        8.31588       51.09367
H          9.00037        7.88061       53.26110
H          9.71471        7.41646       50.47804
H          8.55589        9.51052       50.01703
H          7.13780        8.11862       52.04110
H          8.32033        9.99947       53.04437
H          9.29647       10.96530       51.87445
H          7.50546       10.89446       51.71824
N         11.28194        9.71138       49.93197
C         12.42129       10.59297       49.69635
C         13.10721       10.31854       48.34397
O         14.06682       11.00836       48.03189
C         11.86308       12.03870       49.74661
C         12.92149       13.15182       49.81859
C         12.24072       14.52927       49.89031
C         13.23595       15.69573       50.00980
N         13.95654       15.68307       51.28488
H         10.54253        9.73864       49.22376
H         13.16588       10.47557       50.51326
H         11.25326       12.13117       50.67340
H         11.18636       12.20146       48.87744
H         13.57790       13.14704       48.92732
H         13.53709       12.97495       50.72427
H         11.53541       14.56916       50.74904
H         11.65429       14.67246       48.95570
H         12.65982       16.64521       49.94168
H         13.95722       15.67283       49.16309
H         14.56055       16.53441       51.34154
H         13.27770       15.70173       52.08074
H         14.57144       14.84289       51.36058
N         12.67619        9.35247       47.47504
C         13.24081        9.18153       46.13394
C         12.98505       10.42161       45.29632
O         11.83633       10.80096       45.11669
C         12.63259        7.93689       45.43513
C         13.04045        7.76040       43.95840
C         14.52823        7.71182       43.75525
O         15.26537        6.75498       44.34444
O         15.07505        8.53599       43.03991
H         11.91060        8.72797       47.75486
H         14.33425        9.00375       46.21758
H         11.52639        7.98710       45.46281
H         12.93656        7.03446       45.99620
H         12.61574        8.59508       43.35907
H         12.59423        6.81715       43.57625
N         14.02241       11.08136       44.71346
C         13.81719       12.22232       43.84896
H         13.32310       13.04287       44.40963
H         14.79343       12.58428       43.46238
H         13.18416       11.92926       42.98320
H         14.98722       10.74900       44.86159
Ca        15.25616        4.72341       46.30298
O         16.67024        7.76068       47.26438
H         16.72737        8.67987       46.90060
H         17.61202        7.46229       47.33077
O         16.89027        4.82542       49.00178
H         17.42201        3.99679       49.10706
H         16.64026        5.07971       49.92542
O         15.26309        1.95148       47.30608
H         16.22736        2.01589       47.52176
H         15.23629        1.64113       46.36663

Ca 1.0



