%chk=apoCaM-CA-Ng.loop4.water4.frame278.chk
%nprocshared=20
%mem=10GB
%nosave
#b3lyp/svp scf=(tight,noincore,xqc) Test 
#IOP(5/87=12) Density=Current Pop=(MK,readradii) iop(6/33=2) iop(6/42=6)

apoCaM-CA-Ng.loop4.water4.frame278 

   -3  1 
C         30.36049       37.58078        9.69271
C         29.92188       37.10301        8.34256
O         30.77908       36.90020        7.49773
H         30.89593       38.54761        9.58353
H         29.49697       37.72480       10.37383
H         31.05061       36.83442       10.14000
N         28.60304       36.87483        8.07002
C         28.11110       36.40298        6.77992
C         28.76163       35.09307        6.38449
O         29.37120       35.02228        5.33715
C         28.08589       37.53184        5.70262
C         29.23701       38.51756        5.60943
O         30.48022       38.21317        5.17871
O         29.01394       39.68288        5.90002
H         27.91137       37.00650        8.82330
H         27.03601       36.13141        6.89092
H         27.20616       38.15649        5.98174
H         27.84812       37.11006        4.70340
N         28.61543       34.00192        7.19812
C         29.10192       32.63615        6.96381
C         28.34581       31.95960        5.81823
O         27.55823       31.06607        6.09921
C         30.65127       32.56325        6.84595
C         31.18053       31.11319        6.66183
C         31.31120       33.22997        8.06731
C         30.89098       30.15388        7.82362
H         28.09701       34.14617        8.07907
H         28.82553       32.06704        7.88014
H         30.96952       33.13025        5.94590
H         32.28288       31.15442        6.52118
H         30.74712       30.67911        5.73598
H         31.00191       32.74105        9.01413
H         32.41256       33.17895        7.98501
H         31.02852       34.29933        8.13233
H         29.80100       30.02670        7.98143
H         31.31768       29.15613        7.58886
H         31.36234       30.50584        8.76387
N         28.50096       32.33456        4.51687
C         27.66658       31.82678        3.43689
C         28.11905       30.45827        2.92838
O         27.28642       29.56363        2.98194
C         27.48686       32.89284        2.34010
C         26.77267       34.10786        2.87969
O         27.30503       35.20459        2.84386
O         25.53351       33.99125        3.39627
H         29.17450       33.06599        4.27868
H         26.63058       31.68691        3.82814
H         26.86662       32.47728        1.51683
H         28.46519       33.20438        1.93844
N         29.36331       30.13136        2.45535
C         30.54422       30.97538        2.37863
C         30.59568       31.84385        1.13728
O         29.64550       31.84266        0.36788
H         29.51505       29.13979        2.21038
H         31.41887       30.29836        2.28678
H         30.67094       31.53412        3.32194
N         31.69797       32.59048        0.81765
C         32.94933       32.60378        1.58627
C         32.73150       33.17883        2.98001
O         31.70733       33.81311        3.18545
C         34.00548       33.46000        0.83949
C         34.31822       32.91079       -0.52378
O         34.84099       31.67642       -0.65172
O         34.11688       33.58759       -1.51965
H         31.65111       33.14306       -0.05385
H         33.31358       31.55863        1.66600
H         34.96048       33.50920        1.38754
H         33.62619       34.50244        0.74496
N         33.62166       33.04633        4.00939
C         34.85407       32.26797        4.00788
C         34.60622       30.78050        4.05032
O         33.46191       30.35047        4.03755
H         33.39329       33.53048        4.88951
H         35.40574       32.49909        4.94412
H         35.52019       32.54303        3.17410
N         35.66970       29.93355        4.17145
C         35.52826       28.48954        4.33764
C         35.99099       28.03623        5.71765
O         35.83579       26.85604        6.00846
C         36.25523       27.73823        3.20158
C         37.78897       27.84455        3.26906
C         38.43452       27.15492        2.09604
N         38.24742       27.61893        0.83828
O         39.14637       26.17922        2.28189
H         36.61619       30.34116        4.19041
H         34.45383       28.21264        4.26538
H         35.87766       28.13364        2.23404
H         35.98689       26.65881        3.25255
H         38.12923       27.36672        4.21278
H         38.12326       28.90132        3.27202
H         37.66608       28.45195        0.66510
H         38.69672       27.15412        0.03567
N         36.53395       28.90218        6.63105
C         36.88924       28.51131        7.99123
C         38.37494       28.67066        8.30123
O         38.75588       28.25937        9.38623
C         36.02116       29.28456        9.02731
C         34.52878       28.97833        8.82885
C         36.25372       30.80536        8.98724
H         36.66923       29.88979        6.37809
H         36.67953       27.42789        8.13726
H         36.29710       28.92826       10.04487
H         34.34866       27.88525        8.91196
H         33.92512       29.48693        9.61056
H         34.17781       29.32447        7.83316
H         35.94879       31.23678        8.01270
H         35.65436       31.29958        9.78084
H         37.32241       31.04596        9.16732
N         39.27574       29.22091        7.42454
C         40.71148       29.25941        7.71932
C         41.29784       30.66012        7.77846
O         42.47465       30.73817        8.10739
C         41.48489       28.46817        6.64196
C         41.02996       27.03760        6.52829
N         40.56418       26.55783        5.35186
O         41.09759       26.30054        7.50027
H         38.96019       29.57745        6.51299
H         40.91829       28.79348        8.70665
H         42.56957       28.46089        6.88926
H         41.36580       28.98159        5.66170
H         40.51699       27.16213        4.51877
H         40.25874       25.57730        5.26832
N         40.60536       31.79936        7.48709
C         41.26216       33.11019        7.39486
C         40.25319       34.23531        7.28634
O         39.35050       34.12255        6.46653
C         42.09838       33.24668        6.08687
C         43.20918       32.25920        5.85443
C         44.33796       32.21427        6.69038
C         43.12794       31.38148        4.76046
C         45.35854       31.28903        6.44033
C         44.14694       30.46390        4.51185
C         45.26387       30.41057        5.34895
O         46.23744       29.51471        5.09231
H         39.59281       31.73365        7.29699
H         41.90596       33.28015        8.28747
H         42.55199       34.26341        6.05120
H         41.38900       33.17975        5.23161
H         44.42288       32.88772        7.53454
H         42.27189       31.40466        4.09719
H         46.22135       31.25557        7.09317
H         44.06522       29.79458        3.66506
H         47.02881       29.44175        5.64359
N         40.48510       35.42605        7.92207
C         39.79631       36.68783        7.63570
C         38.46820       36.83796        8.36020
O         38.24032       37.89151        8.93962
C         39.68219       36.94260        6.10741
C         39.34923       38.39580        5.73394
C         40.44869       39.34230        6.13215
O         40.19473       40.35566        6.98086
O         41.57551       39.20013        5.68259
H         41.32669       35.49155        8.51661
H         40.45628       37.49255        8.03076
H         38.89497       36.29518        5.67000
H         40.65009       36.68529        5.62200
H         38.38868       38.69793        6.20200
H         39.23013       38.45985        4.63043
N         37.54693       35.83562        8.38277
C         36.24186       35.94977        9.02219
C         36.40385       36.31379       10.48239
O         35.87368       37.33455       10.89907
C         35.42747       34.63425        8.88874
C         35.24100       34.15655        7.43564
C         34.61118       35.21265        6.58109
O         35.21802       35.66468        5.62442
O         33.37977       35.67046        6.86796
H         37.78608       34.94967        7.93947
H         35.66852       36.75844        8.51473
H         34.42444       34.79493        9.34339
H         35.92749       33.81653        9.44998
H         34.60926       33.24584        7.42194
H         36.21415       33.85918        6.99558
N         37.16250       35.53851       11.30638
C         37.40359       35.85380       12.69927
H         38.49354       35.99695       12.85595
H         36.88228       36.77968       13.02182
H         37.05460       35.01314       13.33301
H         37.61667       34.69478       10.92571
Ca        31.51188       36.33565        4.48061
O         33.28523       38.70017        6.23801
H         33.17084       38.45098        7.18953
H         34.23956       38.51916        6.04659
O         32.29756       38.51207        2.32074
H         31.96451       38.51894        1.38845
H         33.28177       38.56755        2.23173
O         34.42262       36.18316        2.86349
H         35.15983       36.73364        2.49924
H         34.84790       35.31415        3.06835
O         30.14192       36.20726        1.75458
H         29.73348       35.32326        1.92681
H         31.04207       35.99370        1.40248

Ca 1.0



