%chk=apoCaM-CA-Ng.loop3.water6.frame115.chk
%nprocshared=20
%mem=10GB
%nosave
#b3lyp/svp scf=(tight,noincore,xqc) Test 
#IOP(5/87=12) Density=Current Pop=(MK,readradii) iop(6/33=2) iop(6/42=6)

apoCaM-CA-Ng.loop3.water6.frame115 

   0  1 
C         48.91393       87.14708      111.74523
C         49.67772       87.93545      112.76399
O         49.09317       88.79559      113.40619
H         47.85171       87.47327      111.71184
H         49.36557       87.30071      110.74300
H         48.94992       86.06876      112.00497
N         51.00738       87.69134      112.96212
C         51.84170       88.40386      113.92726
C         52.02433       89.87822      113.58059
O         52.59124       90.58770      114.39852
C         51.30480       88.22702      115.36914
C         51.20282       86.77501      115.74290
O         52.30172       85.99620      115.73578
O         50.12614       86.29678      116.06203
H         51.45565       86.94665      112.40636
H         52.86279       87.96035      113.91171
H         50.31611       88.71649      115.48709
H         51.99896       88.71439      116.08752
N         51.61641       90.40461      112.38291
C         51.77981       91.81616      112.03642
C         50.43086       92.49533      111.79799
O         50.41665       93.70316      111.59307
C         52.63569       91.95845      110.75483
C         53.93637       91.13614      110.72330
C         54.93016       91.46952      111.84367
C         56.25841       90.70020      111.69944
N         56.08230       89.24556      111.74524
H         51.19971       89.78954      111.67189
H         52.28475       92.35418      112.86694
H         52.86751       93.03386      110.58833
H         52.03262       91.60447      109.88881
H         54.42761       91.32643      109.74386
H         53.66602       90.06103      110.76817
H         54.48526       91.23428      112.82979
H         55.15784       92.55675      111.81532
H         56.92693       91.00745      112.53370
H         56.75394       90.98188      110.74403
H         55.58261       88.96482      112.61986
H         55.55736       88.90766      110.90758
H         57.02337       88.79002      111.73150
N         49.26385       91.78634      111.75272
C         47.96657       92.37616      111.43604
C         47.49169       93.28843      112.56202
O         48.11973       93.33199      113.61148
C         46.96462       91.22270      111.17209
C         45.62485       91.64749      110.64730
O         45.53790       92.24251      109.58540
O         44.51044       91.32694      111.32874
H         49.29324       90.76841      111.87738
H         48.08043       92.96121      110.49624
H         46.83641       90.63607      112.10722
H         47.40053       90.54285      110.40756
N         46.38212       94.06306      112.40232
C         45.86547       94.93375      113.44115
C         45.37282       94.14174      114.62699
O         45.86243       94.35766      115.72655
H         45.89095       94.06332      111.49884
H         45.00615       95.51249      113.03991
H         46.65123       95.66069      113.74328
N         44.38044       93.21776      114.47142
C         43.80852       92.45121      115.57813
C         44.00933       90.94461      115.42471
O         43.57289       90.21214      116.30233
C         42.30922       92.79438      115.74292
C         41.42979       92.32305      114.60361
N         40.44290       91.42314      114.82712
O         41.59432       92.76511      113.47720
H         44.00613       93.07087      113.52302
H         44.30304       92.74250      116.53056
H         42.19387       93.89394      115.86032
H         41.95524       92.32742      116.68767
H         40.27736       91.03915      115.76873
H         39.83771       91.10726      114.05552
N         44.66721       90.40439      114.35746
C         44.88169       88.97475      114.18141
C         43.59845       88.18884      114.00029
O         42.51605       88.75897      114.01483
H         45.07496       91.02536      113.65170
H         45.43145       88.58091      115.06368
H         45.51049       88.80876      113.28032
N         43.66398       86.83369      113.85697
C         42.47947       85.97842      113.79898
C         41.63857       86.19205      112.55510
O         42.03514       86.90187      111.64301
C         42.87744       84.48582      113.87846
C         43.57589       84.15788      115.17257
C         44.89371       83.67433      115.16838
C         42.90751       84.32350      116.39789
C         45.53478       83.36790      116.37209
C         43.55028       84.01847      117.59900
C         44.86780       83.53961      117.59010
O         45.49973       83.24063      118.74243
H         44.59715       86.39326      113.87102
H         41.84104       86.22952      114.67413
H         43.52249       84.24307      113.00443
H         41.98044       83.83367      113.81931
H         45.42548       83.53486      114.23529
H         41.88778       84.68695      116.42524
H         46.55125       82.99617      116.35709
H         43.02200       84.15366      118.53433
H         45.07216       83.34633      119.60428
N         40.41533       85.59469      112.49749
C         39.46372       85.72964      111.40498
C         38.29897       86.54675      111.94392
O         38.02898       87.61066      111.40511
C         39.04278       84.32015      110.89078
C         40.26021       83.43179      110.50566
C         38.04531       84.41542      109.72261
C         41.11144       83.94856      109.34154
H         40.11693       85.03807      113.31219
H         39.91515       86.29271      110.55750
H         38.52952       83.78951      111.72296
H         39.89322       82.41661      110.23810
H         40.92076       83.31265      111.39119
H         37.74187       83.39714      109.39652
H         37.13001       84.95826      110.02917
H         38.48584       84.95291      108.85782
H         41.54138       84.94438      109.56921
H         41.95207       83.24388      109.16563
H         40.51871       84.00376      108.40600
N         37.64073       86.16320      113.08056
C         36.69702       87.03830      113.77413
C         35.38612       87.23499      113.03798
O         34.64429       88.13064      113.41681
C         36.40503       86.50718      115.18755
O         37.59391       86.35393      115.91613
H         37.91246       85.27838      113.53350
H         37.18934       88.03138      113.88275
H         35.90540       85.51680      115.11796
H         35.71388       87.18709      115.73576
H         37.89931       87.26679      116.15869
N         35.02487       86.44310      111.98955
C         33.81006       86.62143      111.20597
C         33.81133       87.98029      110.52814
O         32.78006       88.63811      110.48106
C         32.54793       86.37304      112.05391
H         35.64835       85.67712      111.70095
H         33.82592       85.85655      110.39849
H         31.63659       86.43576      111.42202
H         32.58807       85.36152      112.50966
H         32.45009       87.12073      112.86868
N         34.97247       88.47757      110.01075
C         35.06228       89.76065      109.33031
C         35.79898       89.61479      108.01476
O         36.43881       88.59732      107.78288
C         35.78913       90.76787      110.22240
H         35.84055       87.93763      110.13520
H         34.04181       90.15208      109.12437
H         36.81777       90.41504      110.45216
H         35.84892       91.75909      109.72483
H         35.23374       90.88946      111.17723
N         35.71341       90.60433      107.08158
C         36.36610       90.56674      105.77780
C         36.07276       89.25522      105.06486
O         36.99744       88.54985      104.68176
C         37.88080       90.85372      105.89960
C         38.14821       92.22952      106.53852
C         39.60040       92.62682      106.51233
O         39.96728       93.81194      107.03531
O         40.44799       91.90689      106.00688
H         35.10703       91.41416      107.28305
H         35.93980       91.38662      105.15785
H         38.30672       90.85640      104.87142
H         38.38991       90.06203      106.49257
H         37.79889       92.21966      107.59375
H         37.58356       93.00871      105.98335
N         34.78370       88.85638      104.88439
C         34.41793       87.60321      104.25484
H         33.77800       87.80758      103.37235
H         35.30224       87.02051      103.91998
H         33.84941       86.98254      104.97900
H         34.02018       89.45850      105.22730
Ca        42.43910       91.77128      110.56529
O         40.31379       90.48861      108.78501
H         41.04198       90.30596      108.13948
H         39.87372       89.61207      108.91703
O         43.14510       94.54177      111.19330
H         43.69454       94.93100      110.46768
H         42.79593       95.32227      111.69154
O         40.00054       93.55086      110.38879
H         40.47574       94.37575      110.11626
H         39.20454       93.51604      109.80134
O         43.10568       93.25425      108.01828
H         43.70090       93.10753      107.24133
H         42.35632       92.62344      107.87755
O         40.62103       89.64685      111.75155
H         39.84327       90.25427      111.67484
H         40.27149       88.85891      112.23661
O         43.58981       88.83036      109.85479
H         43.57807       88.88189      110.84349
H         44.53286       89.00680      109.61065

Ca 1.0



