%chk=apoCaM-CA-Ng.loop3.water4.frame920.chk
%nprocshared=20
%mem=10GB
%nosave
#b3lyp/svp scf=(tight,noincore,xqc) Test 
#IOP(5/87=12) Density=Current Pop=(MK,readradii) iop(6/33=2) iop(6/42=6)

apoCaM-CA-Ng.loop3.water4.frame920 

   0  1 
C        -27.80750       11.24004       21.26073
C        -29.05356       11.06684       22.07861
O        -29.78238       10.11119       21.85267
H        -27.15341       10.35265       21.40059
H        -28.06937       11.33834       20.18825
H        -27.23768       12.14031       21.57501
N        -29.33665       11.93273       23.09020
C        -30.44945       11.72524       24.01057
C        -31.77481       12.16131       23.37428
O        -31.74520       12.87056       22.37773
C        -30.11037       12.47425       25.32840
C        -30.85811       12.05206       26.55377
O        -30.55259       12.60915       27.73993
O        -31.68341       11.16469       26.51132
H        -28.66189       12.69007       23.28291
H        -30.48129       10.64181       24.24069
H        -30.20685       13.57025       25.17249
H        -29.04956       12.25534       25.57997
N        -32.97578       11.76103       23.89033
C        -34.28286       12.16561       23.37195
C        -35.05800       12.99191       24.41026
O        -35.99347       13.67902       24.02513
C        -35.03249       10.88270       22.95696
C        -36.37775       11.07363       22.24247
C        -36.96613        9.68753       21.90840
C        -38.31677        9.72979       21.17735
N        -38.20828       10.31515       19.84033
H        -32.97610       11.09758       24.66845
H        -34.13888       12.81348       22.47945
H        -35.19123       10.26155       23.86412
H        -34.36777       10.32000       22.26476
H        -36.20637       11.65911       21.31535
H        -37.09095       11.62106       22.89434
H        -37.11809        9.13580       22.86270
H        -36.24547        9.10801       21.29001
H        -39.06398       10.28967       21.78124
H        -38.67749        8.68142       21.07386
H        -37.49585        9.79618       19.27666
H        -39.13417       10.23643       19.36088
H        -37.95250       11.32571       19.89807
N        -34.70791       12.99247       25.73415
C        -35.31097       13.83507       26.76773
C        -34.27306       14.71730       27.46942
O        -34.66734       15.50157       28.32237
C        -36.05377       12.98265       27.83492
C        -35.20676       11.97787       28.60391
O        -35.69388       11.39734       29.55870
O        -33.92907       11.72018       28.24436
H        -33.96297       12.36491       26.03421
H        -36.06071       14.51703       26.30734
H        -36.89868       12.44117       27.35744
H        -36.49952       13.69221       28.56854
N        -32.93748       14.64530       27.19007
C        -31.93137       15.44851       27.87093
C        -31.74147       15.13525       29.35426
O        -30.93882       15.82249       29.96848
H        -32.60381       14.02954       26.43994
H        -32.19637       16.52066       27.75104
H        -30.94951       15.28832       27.37393
N        -32.42099       14.14097       30.00276
C        -32.31312       13.87604       31.43627
C        -31.89275       12.44326       31.71778
O        -32.55584       11.52751       31.26076
C        -33.68716       14.09371       32.09899
C        -33.61410       13.81306       33.58470
N        -34.29655       12.77694       34.12752
O        -32.90413       14.50828       34.29609
H        -33.07944       13.56205       29.47696
H        -31.59320       14.57453       31.91610
H        -34.42827       13.41412       31.62130
H        -34.03220       15.13703       31.93934
H        -34.88036       12.16153       33.54233
H        -34.22186       12.57243       35.13513
N        -30.88600       12.18465       32.59623
C        -30.57783       10.84989       33.07933
C        -29.98479        9.97167       32.01205
O        -28.95668       10.33778       31.45987
H        -30.37825       12.97386       33.02315
H        -31.49135       10.39364       33.52228
H        -29.82421       10.93160       33.89201
N        -30.53082        8.75166       31.73091
C        -29.89354        7.80096       30.82258
C        -30.07726        8.18855       29.32759
O        -30.07249        9.57195       29.13642
C        -30.46476        6.37779       31.04968
C        -30.30293        5.89160       32.46955
C        -31.43752        5.60180       33.24542
C        -29.02552        5.70262       33.02514
C        -31.29866        5.13540       34.55456
C        -28.88895        5.23426       34.33624
C        -30.02289        4.94925       35.10483
O        -29.87592        4.49563       36.36589
H        -31.35252        8.44895       32.27573
H        -28.80739        7.77930       31.06714
H        -29.96782        5.63034       30.40038
H        -31.53970        6.39040       30.77708
H        -32.43166        5.73522       32.83722
H        -28.13594        5.91024       32.44374
H        -32.18391        4.91678       35.13808
H        -27.90057        5.08923       34.75422
H        -30.63556        4.28411       36.92739
N        -29.01879        7.53607       28.52374
C        -28.97333        7.75961       27.06118
C        -30.35399        7.66581       26.43302
O        -31.18819        8.50581       26.73437
C        -28.26361        9.09718       26.67769
C        -27.98210        9.19837       25.14864
C        -26.96779        9.31829       27.47852
C        -26.95660        8.19960       24.59316
H        -29.09552        6.50469       28.65832
H        -28.33433        6.94468       26.66083
H        -28.93799        9.93890       26.93946
H        -27.60358       10.21926       24.92320
H        -28.92732        9.05851       24.58834
H        -27.18807        9.37914       28.56472
H        -26.24432        8.49301       27.31945
H        -26.49533       10.27977       27.18136
H        -27.28455        7.15067       24.73170
H        -26.83342        8.37070       23.50294
H        -25.96253        8.34070       25.06490
N        -30.67833        6.67310       25.55448
C        -32.00253        6.61604       24.93143
C        -32.25491        5.30492       24.19193
O        -31.34916        4.49800       24.03035
C        -32.16081        7.81893       23.96254
O        -33.46358        7.91397       23.45110
H        -29.97442        5.94691       25.35514
H        -32.75940        6.66880       25.74206
H        -31.40680        7.72282       23.14500
H        -31.95106        8.77716       24.47089
H        -33.40388        7.86382       22.46206
N        -33.50212        5.04733       23.70190
C        -33.84707        3.86898       22.90668
C        -35.24730        4.00897       22.29044
O        -35.97972        4.91029       22.67639
C        -33.78191        2.60459       23.78740
H        -34.22580        5.75370       23.88316
H        -33.11878        3.81828       22.06930
H        -32.77040        2.46106       24.21679
H        -34.50580        2.69310       24.62630
H        -34.02997        1.68436       23.22457
N        -35.72984        3.18635       21.31341
C        -35.00695        2.10162       20.65959
C        -35.69817        0.78139       20.96888
O        -36.79205        0.80973       21.51697
C        -34.98745        2.39815       19.15104
H        -36.69594        3.35807       20.98925
H        -33.96617        2.04269       21.02645
H        -34.47098        3.36558       18.97286
H        -34.47308        1.62994       18.54865
H        -36.02580        2.47774       18.76435
N        -35.13813       -0.43824       20.72718
C        -33.78875       -0.67737       20.23212
C        -32.83665       -0.76657       21.40417
O        -31.87885       -0.00545       21.43600
C        -33.76778       -1.94834       19.35900
C        -34.62135       -1.76041       18.09213
C        -34.63708       -3.00010       17.24579
O        -35.80537       -3.61084       16.96907
O        -33.59817       -3.45037       16.78968
H        -35.66851       -1.26324       21.05167
H        -33.42451        0.14998       19.60021
H        -34.14688       -2.81513       19.94487
H        -32.72072       -2.16513       19.05242
H        -34.21088       -0.92117       17.48912
H        -35.66654       -1.50910       18.37427
N        -33.05504       -1.64083       22.42534
C        -32.19666       -1.72601       23.59077
H        -31.32997       -1.03330       23.53372
H        -32.78345       -1.46799       24.49731
H        -31.81018       -2.76068       23.69035
H        -33.87989       -2.25779       22.39600
Ca       -32.28827       10.25412       28.92793
O        -33.04645        7.00716       28.69835
H        -33.54047        6.64216       29.47432
H        -33.58603        6.73145       27.91713
O        -35.66925        8.33083       28.97885
H        -36.13685        7.62824       29.49454
H        -36.27585        9.10836       29.02712
O        -33.76978        8.97331       31.26132
H        -34.51449        9.48348       31.66752
H        -33.89723        8.04467       31.57786
O        -34.53036        9.49536       26.42556
H        -34.53983        8.72801       25.80159
H        -35.42801        9.90319       26.33210

Ca 1.0



