%chk=apoCaM-CA-Ng.loop2.water4.frame1482.chk
%nprocshared=20
%mem=10GB
%nosave
#b3lyp/svp scf=(tight,noincore,xqc) Test 
#IOP(5/87=12) Density=Current Pop=(MK,readradii) iop(6/33=2) iop(6/42=6)

apoCaM-CA-Ng.loop2.water4.frame1482 

   -2  1 
C         23.26371       64.43396       58.64658
C         22.88770       65.86629       58.35578
O         22.13424       66.41589       59.14578
H         23.75737       64.38379       59.63957
H         22.34124       63.81729       58.67579
H         23.95082       63.97444       57.91553
N         23.33691       66.57649       57.27748
C         24.30910       66.08837       56.29978
C         24.18748       66.70619       54.90097
O         24.86163       66.19231       54.01733
C         25.73346       66.19356       56.89078
C         25.97765       67.54670       57.56205
O         27.20205       67.55773       58.23852
O         25.98093       68.60369       56.64888
H         23.05228       67.56403       57.24374
H         24.08980       65.02439       56.07531
H         26.51304       65.95094       56.13522
H         25.81794       65.44307       57.70413
N         23.33572       67.73042       54.57843
C         23.10514       68.15417       53.19464
C         24.34272       68.66318       52.46472
O         24.25127       68.85266       51.25932
C         22.00905       69.22767       53.14274
H         22.76640       68.17885       55.30457
H         22.73823       67.26139       52.64063
H         21.77361       69.50081       52.09208
H         21.07935       68.84737       53.61735
H         22.33963       70.13980       53.68582
N         25.52113       68.90779       53.10459
C         26.73474       69.33876       52.42075
C         27.84066       68.31034       52.61718
O         28.40977       67.87362       51.62560
C         27.10764       70.77989       52.83179
C         27.36589       71.00456       54.29233
O         26.55608       71.81249       55.00273
O         28.34206       70.51463       54.82819
H         25.56512       68.79965       54.12442
H         26.56349       69.41152       51.32247
H         26.25547       71.42974       52.53404
H         27.99862       71.11404       52.25649
N         28.16547       67.82603       53.85291
C         29.18386       66.80855       54.05856
C         30.60097       67.30599       53.84020
O         31.50707       66.49017       53.92987
H         27.63460       68.13318       54.67745
H         28.97097       65.94720       53.38738
H         29.12538       66.43822       55.10460
N         30.88053       68.61647       53.57487
C         32.22309       69.13072       53.32746
C         32.63667       70.16891       54.37707
O         33.76783       70.62842       54.31925
C         32.21431       69.69716       51.88330
C         33.53034       70.23045       51.36162
N         34.15662       69.62592       50.32564
O         34.01764       71.24064       51.84420
H         30.11153       69.29546       53.51488
H         32.96814       68.30663       53.37627
H         31.45326       70.50410       51.79896
H         31.88544       68.86613       51.22069
H         33.76329       68.78202       49.88516
H         35.04295       70.00558       49.96116
N         31.80224       70.59331       55.37136
C         32.20162       71.66915       56.27434
C         31.11525       72.06471       57.25954
O         30.09840       71.39290       57.33457
H         30.86133       70.18933       55.44983
H         32.42184       72.55087       55.63755
H         33.11755       71.38588       56.83569
N         31.20763       73.18396       58.03440
C         32.31930       74.12978       57.99842
C         33.53984       73.59055       58.72389
O         34.60098       73.54088       58.11761
C         31.90823       75.50903       58.58082
C         30.80495       76.16434       57.73673
O         31.47604       75.38521       59.91096
H         30.39154       73.41298       58.62392
H         32.59125       74.34788       56.94210
H         32.80785       76.16897       58.53496
H         31.56095       76.28348       60.32552
H         29.87758       75.55454       57.74180
H         30.56617       77.17007       58.14202
H         31.14593       76.28742       56.68611
N         33.47056       73.21021       60.03552
C         34.64181       72.82779       60.83061
C         34.56400       71.36726       61.27430
O         33.48276       70.79798       61.21987
C         34.80736       73.79598       62.05055
C         33.55607       73.79988       62.97329
C         35.14867       75.20871       61.54368
C         33.74325       74.60060       64.26292
H         32.54821       73.21262       60.49189
H         35.54283       72.90783       60.19067
H         35.66310       73.45665       62.66669
H         33.32516       72.75553       63.27309
H         32.67490       74.21539       62.44168
H         34.31481       75.62951       60.94337
H         35.36994       75.89713       62.38327
H         36.06111       75.17202       60.91073
H         34.59831       74.19806       64.84558
H         33.90872       75.67647       64.05453
H         32.82375       74.51805       64.88059
N         35.66399       70.64462       61.66830
C         37.04590       71.12246       61.59025
C         37.92837       70.60030       62.72583
O         37.50535       69.77345       63.52140
C         37.62832       70.76126       60.20236
C         37.62598       69.28208       59.92406
O         38.34336       68.44119       60.69286
O         36.98344       68.83871       58.98533
H         35.52000       69.64057       61.86103
H         37.08150       72.22195       61.66592
H         38.66549       71.14310       60.10133
H         37.01980       71.26938       59.42275
N         39.20549       71.06894       62.82485
C         40.21244       70.61211       63.78237
C         39.82064       70.89290       65.23508
O         39.47459       72.03063       65.51717
C         41.53247       71.39041       63.52251
C         42.64428       70.98439       64.46508
C         43.28067       69.73968       64.33039
C         43.04252       71.84965       65.50036
C         44.29440       69.36612       65.21946
C         44.04794       71.46828       66.39280
C         44.67476       70.22809       66.25204
H         39.49326       71.78603       62.14104
H         40.39681       69.53891       63.59399
H         41.31238       72.47337       63.65919
H         41.87973       71.26353       62.47409
H         42.99147       69.06065       63.53820
H         42.56133       72.81110       65.63045
H         44.78163       68.40594       65.11202
H         44.33778       72.13342       67.19615
H         45.45274       69.93459       66.94486
N         39.99669       69.97596       66.24720
C         40.50784       68.62094       66.10906
C         39.38903       67.58732       66.08501
O         39.68554       66.41953       65.88426
C         41.31761       68.45233       67.39946
C         40.40494       69.13117       68.41459
C         39.96972       70.37964       67.64616
H         41.16235       68.46850       65.23441
H         41.60625       67.40764       67.64599
H         42.24426       69.06240       67.31909
H         39.52034       68.47668       68.57164
H         40.85628       69.33674       69.40811
H         38.98220       70.75869       67.98475
H         40.74227       71.16958       67.78074
N         38.09964       67.93091       66.38298
C         37.02219       66.95841       66.51645
C         37.41649       65.86350       67.51805
O         37.67736       66.20563       68.66201
C         35.70376       67.67476       66.93221
C         35.75006       68.40471       68.29796
C         34.49029       69.18039       68.54892
O         33.72537       68.89852       69.62095
O         34.16881       70.09006       67.80082
H         37.88087       68.91692       66.56648
H         36.83744       66.54899       65.51380
H         34.87302       66.93581       66.94920
H         35.47650       68.42392       66.14158
H         36.59512       69.12205       68.34196
H         35.87128       67.67401       69.12183
N         37.54186       64.53461       67.21253
C         37.34244       63.89999       65.92274
H         37.05353       64.57561       65.10600
H         38.28719       63.40196       65.61821
H         36.55170       63.12739       66.01571
H         37.82619       63.89910       67.97466
Ca        27.92295       69.51774       57.38208
O         24.67954       70.90487       58.13788
H         23.99398       70.37037       57.66357
H         24.68042       70.54526       59.06047
O         28.48832       70.57262       60.36512
H         29.40236       70.83539       60.08945
H         28.56311       69.61071       60.58802
O         27.28664       72.72897       58.23425
H         27.44685       73.38688       57.51188
H         26.86874       73.25488       58.96176
O         30.45776       67.93307       57.04321
H         31.13720       68.43496       57.55912
H         30.06607       67.29870       57.69451

Ca 1.0



