%chk=apoCaM-CA-Ng.loop1.water3.frame1175.chk
%nprocshared=20
%mem=10GB
%nosave
#b3lyp/svp scf=(tight,noincore,xqc) Test 
#IOP(5/87=12) Density=Current Pop=(MK,readradii) iop(6/33=2) iop(6/42=6)

apoCaM-CA-Ng.loop1.water3.frame1175 

   0  1 
C         19.46714       38.57927       24.21826
C         19.85335       39.66762       25.16844
O         18.97714       40.38884       25.62250
H         18.37118       38.59644       24.03146
H         19.99423       38.72743       23.25295
H         19.74383       37.59602       24.64952
N         21.16204       39.85046       25.51242
C         21.59756       40.88638       26.44667
C         21.83671       42.22942       25.75857
O         22.79600       42.91266       26.09494
C         22.82368       40.41101       27.26755
C         24.07464       40.15759       26.45430
O         25.18877       39.73233       27.07804
O         24.10027       40.33610       25.24585
H         21.85449       39.18682       25.13622
H         20.78483       41.04048       27.18787
H         22.55361       39.47142       27.79466
H         23.06377       41.17544       28.03900
N         20.99052       42.68979       24.79488
C         21.11919       44.00986       24.19813
C         20.88413       45.06863       25.26780
O         21.76303       45.90271       25.43051
C         20.22117       44.18349       22.94664
C         20.60075       43.14593       21.86789
C         19.86624       43.36916       20.54254
C         20.28605       42.30148       19.51786
N         19.65328       42.53190       18.22050
H         20.22248       42.09411       24.47323
H         22.15872       44.12835       23.81216
H         20.40267       45.20146       22.53608
H         19.14109       44.10044       23.17838
H         20.37373       42.12181       22.23302
H         21.69345       43.21293       21.66938
H         20.12590       44.37697       20.15128
H         18.76744       43.31644       20.70306
H         19.99951       41.29356       19.89435
H         21.39137       42.32188       19.38713
H         19.95205       43.45841       17.83794
H         19.95446       41.78175       17.55672
H         18.61244       42.50482       18.31502
N         19.80864       45.08683       26.11756
C         18.67581       44.15852       26.11797
C         18.74270       43.21130       27.31624
O         19.67895       43.28287       28.10048
C         17.35773       44.96188       26.08438
C         17.19762       45.76457       27.33862
O         17.12130       45.12963       28.52316
O         17.19275       46.97808       27.28808
H         19.82150       45.80383       26.86091
H         18.67947       43.52266       25.22193
H         16.48044       44.28962       25.98406
H         17.37014       45.63141       25.19538
N         17.77471       42.26859       27.49071
C         17.77946       41.26188       28.54328
C         17.57727       41.79658       29.94693
O         17.48232       42.99418       30.15055
H         17.01346       42.21231       26.79781
H         18.72247       40.67769       28.49863
H         16.93544       40.56619       28.34804
N         17.44410       40.89819       30.96801
C         17.17955       41.25392       32.36947
C         16.60528       40.04671       33.14198
O         16.70398       38.93035       32.65601
C         18.49177       41.71837       33.05589
C         18.98894       43.04262       32.56399
O         18.23877       44.14717       32.74016
O         20.08609       43.13225       32.03777
H         17.46297       39.90533       30.69708
H         16.39863       42.03867       32.37890
H         19.26562       40.93302       32.90852
H         18.37241       41.83392       34.14441
N         15.97570       40.15547       34.35725
C         15.67921       41.39770       35.05213
C         14.66780       42.24644       34.31982
O         14.05288       41.78730       33.36875
H         15.66719       39.28462       34.81838
H         16.60300       41.97105       35.22548
H         15.25794       41.17977       36.05780
N         14.47372       43.53146       34.71570
C         13.55816       44.46940       34.06747
C         13.84655       44.59198       32.57028
O         14.99896       44.72902       32.19043
C         13.63725       45.83981       34.78403
C         12.69817       46.87560       34.16300
O         14.95538       46.32360       34.75974
H         15.03712       43.86634       35.51431
H         12.51687       44.09904       34.19634
H         13.31954       45.66704       35.84082
H         15.07259       46.88810       35.56846
H         12.74601       47.82096       34.74280
H         13.00182       47.09160       33.11776
H         11.65138       46.50513       34.16988
N         12.80631       44.55612       31.67845
C         12.89415       44.59905       30.21480
C         13.56311       45.86462       29.69257
O         14.73492       46.06461       29.95293
C         13.60176       43.33259       29.63665
C         12.89681       42.04482       30.13207
C         13.60630       43.38289       28.09097
C         13.60348       40.75632       29.70385
H         11.85307       44.47804       32.06482
H         11.85027       44.57885       29.82641
H         14.65575       43.31762       29.99022
H         11.84264       42.02202       29.77978
H         12.87927       42.04638       31.23717
H         12.56556       43.39654       27.69959
H         14.13315       44.28428       27.72312
H         14.14711       42.52293       27.65203
H         13.08554       39.88478       30.15530
H         13.57816       40.62250       28.60413
H         14.65776       40.76179       30.05214
N         12.89920       46.71480       28.85720
C         13.56259       47.81196       28.15083
C         13.02323       49.15502       28.60675
O         12.56433       49.94690       27.79502
C         13.49041       47.58000       26.61214
C         12.06496       47.39587       26.06285
O         14.24087       46.43725       26.29175
H         11.89971       46.54619       28.67403
H         14.64372       47.84674       28.40564
H         13.95463       48.47070       26.12546
H         14.58934       46.56142       25.36993
H         12.10499       47.28150       24.95876
H         11.59576       46.47457       26.46742
H         11.41838       48.26395       26.29835
N         13.07820       49.47669       29.92980
C         12.61456       50.74574       30.47936
C         13.68773       51.35252       31.37681
O         14.05388       50.73240       32.36423
C         11.26632       50.53495       31.21419
C         11.27665       49.43783       32.28419
O         10.84691       51.74115       31.80016
H         13.44281       48.76885       30.58569
H         12.39867       51.46537       29.65903
H         10.51969       50.19611       30.45510
H         10.25113       52.19409       31.14847
H         10.26261       49.33983       32.72418
H         11.53478       48.45760       31.83242
H         11.98410       49.66858       33.10373
N         14.24685       52.56778       31.08571
C         15.26913       53.21531       31.91214
C         16.47219       52.30759       32.02724
O         16.82894       51.86607       33.11174
C         14.70046       53.65299       33.27642
C         13.56232       54.66406       33.08412
C         13.03899       55.17852       34.42572
C         11.89575       56.17800       34.20928
N         11.38437       56.67117       35.48639
H         13.95102       53.05884       30.22871
H         15.61221       54.14452       31.40294
H         15.51549       54.14297       33.85487
H         14.33789       52.77874       33.85785
H         12.73061       54.18110       32.52607
H         13.93619       55.52805       32.49018
H         13.86610       55.67871       34.97674
H         12.67056       54.32156       35.03029
H         11.07065       55.68093       33.65171
H         12.26025       57.03769       33.60297
H         11.02286       55.87423       36.05918
H         12.14232       57.16764       36.00882
H         10.60206       57.34060       35.30499
N         17.11675       51.96426       30.88463
C         18.18453       50.98236       30.80960
C         17.68714       49.80989       29.98879
O         17.64286       48.73439       30.56048
C         19.51083       51.58132       30.30520
C         20.03375       52.64240       31.28320
C         21.33143       53.22301       30.80446
O         22.40676       52.43029       30.63320
O         21.42061       54.41877       30.57667
H         16.77454       52.39700       30.02000
H         18.41039       50.58317       31.82667
H         19.41257       52.03334       29.30329
H         20.26205       50.76257       30.23629
H         20.19630       52.18372       32.28331
H         19.28164       53.45458       31.38719
N         17.22808       49.86554       28.70107
C         17.18174       50.99852       27.80008
H         17.63494       51.91637       28.18754
H         17.72754       50.73866       26.86971
H         16.12296       51.21133       27.54077
H         16.83978       49.00171       28.31285
Ca        17.33777       46.05228       30.56881
O         20.32191       45.76378       30.08528
H         20.53360       45.65062       31.04516
H         19.66229       45.05121       29.89868
O         19.16343       47.26974       32.83534
H         19.59949       48.11095       33.12187
H         19.48619       46.58942       33.47817
O         15.55615       48.08355       32.41193
H         15.65258       48.64995       33.21773
H         16.05444       47.25775       32.63217

Ca 1.0



