%chk=apoCaM-CA-Ng.loop4.water3.frame422.chk
%nprocshared=20
%mem=10GB
%nosave
#b3lyp/svp scf=(tight,noincore,xqc) Test 
#IOP(5/87=12) Density=Current Pop=(MK,readradii) iop(6/33=2) iop(6/42=6)

apoCaM-CA-Ng.loop4.water3.frame422 

   -3  1 
C         63.42012       81.31831       72.15043
C         62.16220       80.50708       72.20348
O         61.70589       80.09479       71.15438
H         64.22184       80.71147       71.67657
H         63.24949       82.22867       71.53871
H         63.75442       81.61877       73.16405
N         61.56081       80.21329       73.39105
C         60.37917       79.37006       73.52662
C         60.62316       77.94972       73.06078
O         60.21679       77.60432       71.97063
C         59.02790       80.01130       73.08264
C         58.84934       80.80171       71.79310
O         58.97510       80.31299       70.53828
O         58.46846       81.95746       71.89687
H         61.99294       80.56324       74.25933
H         60.19839       79.23265       74.61838
H         58.78239       80.74006       73.88962
H         58.23828       79.23284       73.13317
N         61.26526       77.06817       73.89169
C         61.47822       75.63109       73.67801
C         60.18756       74.83628       73.89026
O         60.14845       74.02305       74.80383
C         62.19808       75.29670       72.33797
C         62.51739       73.77965       72.19873
C         63.47878       76.13455       72.17123
C         63.42873       73.19027       73.28575
H         61.63427       77.44390       74.77932
H         62.16273       75.30978       74.49372
H         61.52864       75.55415       71.48995
H         63.00742       73.61381       71.21631
H         61.56878       73.20090       72.19651
H         63.23746       77.21760       72.15367
H         64.19211       75.95515       73.00165
H         63.97471       75.88802       71.20810
H         64.41148       73.70246       73.31434
H         62.95553       73.24593       74.28706
H         63.61234       72.11713       73.06841
N         59.08363       75.03558       73.12056
C         57.81230       74.36299       73.33676
C         57.87063       72.88092       72.98665
O         57.55775       72.09434       73.86886
C         56.67240       75.07465       72.56831
C         56.44987       76.49404       73.03970
O         55.57619       77.17004       72.52159
O         57.18385       77.02359       74.03967
H         59.11122       75.73455       72.38018
H         57.53822       74.45656       74.41411
H         55.72246       74.52076       72.73209
H         56.88407       75.09154       71.48073
N         58.19659       72.37057       71.75825
C         58.67804       73.10345       70.59754
C         57.66605       73.07758       69.47183
O         56.49275       72.88220       69.75765
H         58.11531       71.34915       71.63420
H         59.62803       72.62788       70.28014
H         58.90219       74.15311       70.82544
N         57.98796       73.29184       68.15855
C         59.34364       73.41844       67.60697
C         60.12969       74.57426       68.21809
O         59.51782       75.41330       68.86318
C         59.25675       73.55302       66.05898
C         58.61919       74.84390       65.59806
O         57.34506       75.13916       65.91941
O         59.25395       75.62272       64.90443
H         57.19725       73.28163       67.49636
H         59.86846       72.47253       67.85101
H         58.67727       72.69958       65.64867
H         60.25206       73.48452       65.59880
N         61.48182       74.73492       68.08399
C         62.42860       73.88970       67.37562
C         62.70131       72.57673       68.05377
O         62.14653       72.29038       69.10533
H         61.89797       75.55070       68.53539
H         63.41139       74.41221       67.36771
H         62.15661       73.76111       66.31964
N         63.63606       71.75280       67.50421
C         64.12344       70.53931       68.14209
C         65.59740       70.67686       68.53589
O         66.07959       69.79170       69.22934
C         63.78672       69.29282       67.28955
C         64.25061       69.32858       65.82363
C         65.74037       69.39637       65.68865
N         66.51951       68.40657       66.17619
O         66.25043       70.34967       65.12443
H         64.06318       72.03592       66.60917
H         63.59676       70.38873       69.11094
H         62.67893       69.19939       67.26400
H         64.17562       68.38298       67.79655
H         63.77782       70.19067       65.30592
H         63.89768       68.40778       65.31179
H         66.10727       67.58662       66.64202
H         67.53933       68.45695       66.08508
N         66.34159       71.79129       68.23016
C         67.62907       72.09071       68.86135
C         68.80099       72.23847       67.89536
O         69.90104       72.45006       68.38826
C         67.49513       73.39753       69.70926
C         66.38871       73.26659       70.76698
C         67.23975       74.65385       68.84758
H         65.94691       72.51590       67.61955
H         67.90795       71.26788       69.55585
H         68.45421       73.55737       70.25076
H         66.35111       74.18106       71.39693
H         65.39419       73.13488       70.28929
H         66.58843       72.39685       71.42722
H         67.21236       75.55750       69.49234
H         68.05382       74.79878       68.10640
H         66.27337       74.59842       68.30590
N         68.66990       72.17368       66.53806
C         69.79520       72.40255       65.63080
C         69.55950       73.59158       64.70724
O         70.46129       73.87487       63.92873
C         70.06968       71.15116       64.76452
C         70.43999       69.92370       65.55641
N         71.51238       69.91619       66.38086
O         69.78163       68.90590       65.42269
H         67.74895       71.98149       66.12752
H         70.72149       72.63348       66.19883
H         70.92198       71.36061       64.08135
H         69.17640       70.93318       64.13979
H         72.09916       70.75364       66.49808
H         71.75999       69.06143       66.90169
N         68.40582       74.33177       64.70308
C         68.17246       75.38116       63.70457
C         66.90607       76.20008       63.94012
O         66.06927       75.84768       64.76060
C         68.11599       74.74419       62.28208
C         67.23005       73.50616       62.24989
C         67.80843       72.24751       61.99924
C         65.84697       73.57365       62.50055
C         67.02896       71.08767       62.02000
C         65.06949       72.41251       62.52218
C         65.65611       71.16662       62.28749
O         64.89507       70.05445       62.33158
H         67.67073       74.13089       65.39461
H         69.00774       76.11431       63.76884
H         69.14481       74.44505       61.99648
H         67.80041       75.48040       61.51335
H         68.87018       72.15690       61.80567
H         65.35918       74.51431       62.69122
H         67.49626       70.12769       61.83958
H         64.00956       72.48173       62.73226
H         65.26767       69.17064       62.20178
N         66.73310       77.34659       63.21179
C         65.55593       78.21589       63.21159
C         65.22397       78.87859       64.54576
O         64.27409       79.65010       64.56353
C         64.32882       77.48897       62.62347
C         64.57464       77.06129       61.16595
C         63.34025       76.45643       60.56402
O         63.36130       75.19043       60.10684
O         62.31710       77.11617       60.46737
H         67.49172       77.62067       62.56760
H         65.77061       79.06459       62.52193
H         63.47031       78.19665       62.62259
H         64.05366       76.61222       63.24712
H         65.40758       76.32931       61.11945
H         64.85857       77.94706       60.55592
N         65.96070       78.69368       65.67845
C         65.68407       79.38953       66.93190
C         66.82928       80.32296       67.29945
O         66.71608       81.00029       68.31270
C         65.45976       78.35877       68.05861
C         64.24909       77.43418       67.84753
C         62.92836       78.13680       68.02780
O         62.56961       79.02393       67.27091
O         62.12689       77.75094       69.03872
H         66.77642       78.06884       65.66606
H         64.78629       80.03562       66.84482
H         65.33324       78.87077       69.03878
H         66.37242       77.72676       68.12319
H         64.30759       76.64274       68.62671
H         64.29494       76.93217       66.85785
N         67.95408       80.43742       66.53353
C         69.02822       81.33914       66.88259
H         69.84435       81.26085       66.13289
H         68.65397       82.38459       66.89334
H         69.43533       81.07574       67.88150
H         68.07277       79.88253       65.67507
Ca        60.14321       78.64960       69.57818
O         59.15684       78.10134       66.72840
H         58.32669       77.59600       66.91561
H         58.88216       78.79347       66.07629
O         59.93852       81.09238       67.88893
H         59.99697       81.02212       66.90365
H         60.77551       81.54701       68.15909
O         57.25380       77.36241       69.50223
H         56.48864       77.16595       68.90531
H         56.91489       78.05437       70.12374

Ca 1.0



