%chk=apoCaM-CA-Ng.loop1.water3.frame1074.chk
%nprocshared=20
%mem=10GB
%nosave
#b3lyp/svp scf=(tight,noincore,xqc) Test 
#IOP(5/87=12) Density=Current Pop=(MK,readradii) iop(6/33=2) iop(6/42=6)

apoCaM-CA-Ng.loop1.water3.frame1074 

   0  1 
C         31.19367       39.88408        7.53758
C         32.14016       39.88451        8.69522
O         31.83270       40.51423        9.69377
H         30.30506       40.51412        7.76596
H         31.69279       40.27957        6.63113
H         30.84708       38.84529        7.35769
N         33.32045       39.20095        8.63692
C         34.20034       39.06158        9.79326
C         35.32422       40.08776        9.77848
O         36.47323       39.72121        9.99368
C         34.75416       37.61632        9.88664
C         33.68550       36.56588       10.00286
O         32.86627       36.41125        9.11139
O         33.65694       35.75548       11.07804
H         33.56915       38.71441        7.76210
H         33.62512       39.26559       10.72180
H         35.41504       37.53657       10.77796
H         35.36778       37.39912        8.98378
N         35.06720       41.41434        9.58422
C         36.10106       42.42569        9.77367
C         36.45677       42.50442       11.25535
O         37.61822       42.27671       11.56124
C         35.74143       43.80228        9.16418
C         35.61375       43.70359        7.63422
C         35.39906       45.07905        6.99331
C         35.33250       44.96013        5.46377
N         35.14688       46.27040        4.84202
H         34.11561       41.71235        9.32818
H         37.01362       42.11077        9.21558
H         36.57879       44.49899        9.39165
H         34.81961       44.24531        9.58356
H         34.76777       43.03341        7.36833
H         36.55243       43.27054        7.22219
H         36.24652       45.74636        7.26546
H         34.45490       45.52444        7.37544
H         34.48824       44.29410        5.17792
H         36.27757       44.50939        5.08503
H         34.25146       46.70007        5.16933
H         35.94889       46.89826        5.08029
H         35.10743       46.15324        3.80365
N         35.55889       42.74506       12.26328
C         34.12742       43.01020       12.11452
C         33.29465       41.83873       12.61124
O         33.84637       40.87414       13.12402
C         33.76330       44.34762       12.78871
C         34.18469       44.39718       14.22921
O         33.71699       43.49368       15.10687
O         34.98121       45.24323       14.60035
H         35.92454       42.69802       13.22794
H         33.84933       43.09813       11.05790
H         32.67107       44.53106       12.71685
H         34.27998       45.16773       12.24249
N         31.95340       41.80700       12.35811
C         31.15952       40.60166       12.54036
C         30.77060       40.30832       13.95939
O         30.90414       41.15436       14.82638
H         31.52167       42.59671       11.85380
H         31.72312       39.74116       12.12426
H         30.21223       40.68526       11.96513
N         30.26535       39.07217       14.24369
C         29.77436       38.66724       15.55757
C         28.47411       37.86947       15.41262
O         28.18356       37.39977       14.32516
C         30.87732       37.85503       16.27422
C         31.96640       38.81109       16.66861
O         33.06740       38.75269       16.14863
O         31.66366       39.78999       17.55158
H         30.27481       38.36697       13.49221
H         29.55398       39.57409       16.14609
H         31.24570       37.05359       15.59557
H         30.52309       37.36549       17.19971
N         27.61361       37.66273       16.45911
C         27.75764       38.25783       17.77408
C         27.57582       39.75747       17.73770
O         27.21811       40.30807       16.70057
H         26.78477       37.06827       16.29725
H         28.74085       37.99861       18.20591
H         26.98270       37.84996       18.45914
N         27.80687       40.48942       18.85560
C         27.63970       41.94119       18.91074
C         28.59901       42.65035       17.93839
O         29.47180       42.01171       17.38118
C         27.80781       42.39367       20.39070
C         27.44707       43.85108       20.66978
O         29.12169       42.14188       20.81771
H         28.09093       39.97969       19.70974
H         26.59509       42.16038       18.59679
H         27.09398       41.77383       20.98476
H         29.09568       42.03580       21.80455
H         27.50029       44.04234       21.76271
H         28.16437       44.53384       20.18299
H         26.41337       44.06623       20.32683
N         28.44731       43.97663       17.66297
C         29.29464       44.78960       16.79309
C         30.72977       44.93030       17.41068
O         31.69547       44.18338       16.70714
C         29.24845       44.40830       15.27050
C         27.82172       44.47569       14.65179
C         30.12194       45.38336       14.44144
C         26.82452       43.42799       15.14031
H         27.65386       44.46735       18.09661
H         28.83041       45.80175       16.83077
H         29.65479       43.38714       15.12461
H         27.91288       44.30361       13.55605
H         27.39140       45.49105       14.79927
H         29.75348       46.42648       14.54674
H         31.18808       45.36885       14.73239
H         30.09755       45.10727       13.36538
H         26.55419       43.56106       16.20132
H         25.88286       43.53337       14.56083
H         27.23040       42.40920       14.97158
N         31.10504       46.35770       17.38974
C         32.44672       46.68677       17.90478
C         32.60190       46.52958       19.42159
O         33.68436       46.81121       19.91687
C         32.80938       48.13599       17.46527
C         31.95901       49.22011       18.14753
O         32.65880       48.26692       16.07429
H         30.38471       46.93155       17.88448
H         33.18164       46.01939       17.41383
H         33.86810       48.35125       17.74180
H         33.42105       47.79212       15.65233
H         32.28623       50.22389       17.80193
H         30.88273       49.11432       17.90192
H         32.08322       49.18376       19.25033
N         31.57671       46.11548       20.22421
C         31.66725       46.04247       21.68149
C         32.77260       45.08513       22.10633
O         32.66689       43.89635       21.84771
C         30.28339       45.63251       22.25874
C         30.27987       45.39508       23.76609
O         29.34375       46.64375       21.98532
H         30.67887       45.86816       19.79365
H         31.90605       47.05931       22.06461
H         29.97014       44.66759       21.79642
H         28.94323       46.46214       21.09786
H         30.94790       44.55614       24.02896
H         30.59501       46.30844       24.30979
H         29.25473       45.11075       24.08841
N         33.88758       45.56802       22.73615
C         35.03543       44.76813       23.15898
C         35.52999       43.87136       22.03576
O         35.49529       42.65679       22.16608
C         34.80873       44.06058       24.52243
C         33.75901       42.93857       24.60399
C         33.79547       42.29535       25.99843
C         32.83885       41.10137       26.09694
N         32.93847       40.46469       27.41053
H         33.96413       46.58789       22.87090
H         35.86493       45.47558       23.38890
H         34.55047       44.83732       25.27702
H         35.79046       43.62601       24.81577
H         33.97598       42.14436       23.86632
H         32.74932       43.33649       24.40399
H         33.53289       43.05259       26.76982
H         34.82705       41.92903       26.19772
H         33.10117       40.35446       25.31435
H         31.79399       41.44123       25.92444
H         33.91502       40.12470       27.57172
H         32.67451       41.14274       28.16161
H         32.28923       39.64611       27.44586
N         36.02480       44.41826       20.88976
C         36.40610       43.60856       19.73706
C         35.69426       44.11054       18.48361
O         34.81223       43.39631       18.02862
C         37.93361       43.47014       19.59972
C         38.53954       42.70484       20.78728
C         40.00969       42.47649       20.58801
O         40.40639       41.82165       19.63670
O         40.89741       42.97658       21.46796
H         36.11986       45.44109       20.84272
H         36.04153       42.56710       19.88530
H         38.43184       44.45348       19.54722
H         38.14113       42.89606       18.66950
H         38.04628       41.71409       20.89398
H         38.37858       43.28214       21.72346
N         35.94711       45.29351       17.84536
C         36.99121       46.24231       18.16247
H         37.98482       45.79463       17.97282
H         36.91573       47.11429       17.47839
H         36.90323       46.61966       19.19661
H         35.35905       45.53148       17.03602
Ca        32.11969       42.01141       17.35559
O         34.72141       40.32792       18.84197
H         35.69462       40.24680       18.67972
H         34.61218       40.10342       19.79980
O         35.27868       40.85643       15.78151
H         34.29384       40.93450       15.72027
H         35.44128       39.89952       15.97696
O         31.90850       41.47415       20.25463
H         32.85783       41.65916       20.46221
H         31.56223       42.33589       19.91073

Ca 1.0



