%chk=apoCaM-CA-Ng.loop3.water3.frame848.chk
%nprocshared=20
%mem=10GB
%nosave
#b3lyp/svp scf=(tight,noincore,xqc) Test 
#IOP(5/87=12) Density=Current Pop=(MK,readradii) iop(6/33=2) iop(6/42=6)

apoCaM-CA-Ng.loop3.water3.frame848 

   0  1 
C         74.42975       84.78662       70.36633
C         74.75975       85.98544       69.52846
O         74.63087       85.89882       68.31819
H         73.38062       84.48542       70.14953
H         75.10462       83.94221       70.12186
H         74.49999       85.01713       71.44956
N         75.17393       87.15010       70.10349
C         75.27112       88.41031       69.37662
C         76.71969       88.85250       69.18339
O         77.46758       88.92399       70.14819
C         74.41474       89.44427       70.12924
C         74.20188       90.72286       69.38423
O         73.37396       91.64838       69.89556
O         74.73624       90.92327       68.30883
H         75.33945       87.16963       71.12191
H         74.80688       88.29578       68.37937
H         74.85873       89.66335       71.12415
H         73.40517       89.00625       70.28229
N         77.17403       89.15284       67.92680
C         78.55838       89.49405       67.59586
C         78.86681       90.97622       67.83258
O         80.03331       91.31720       67.95694
C         78.82262       89.04103       66.13846
C         80.26139       89.17748       65.62243
C         80.34659       88.58875       64.20116
C         81.75780       88.68364       63.60980
N         81.80180       88.07837       62.27675
H         76.50669       89.08341       67.14639
H         79.22014       88.89036       68.25625
H         78.14950       89.59915       65.45456
H         78.54759       87.96292       66.08278
H         80.95143       88.62097       66.29306
H         80.55686       90.24783       65.60011
H         79.64100       89.13057       63.53263
H         80.04726       87.51753       64.23462
H         82.47662       88.15430       64.27333
H         82.05988       89.75195       63.53992
H         82.76935       88.16353       61.88995
H         81.55135       87.06398       62.33360
H         81.13658       88.56653       61.63362
N         77.86929       91.90535       67.91639
C         78.05526       93.31300       68.27062
C         77.27176       93.67206       69.54216
O         77.31783       94.82389       69.95489
C         77.69168       94.22535       67.07777
C         76.31707       93.99960       66.50888
O         75.22269       94.13572       67.27470
O         76.18833       93.70868       65.33082
H         76.90936       91.60433       67.73480
H         79.12347       93.52225       68.50090
H         78.43584       94.05026       66.26931
H         77.78818       95.28859       67.38892
N         76.60382       92.72392       70.26109
C         75.99554       92.94690       71.56122
C         74.69290       93.72891       71.61530
O         74.18583       93.81313       72.72529
H         76.63605       91.74384       69.95494
H         76.74332       93.41437       72.23856
H         75.75589       91.94757       71.98816
N         74.07530       94.32061       70.53977
C         72.79847       95.03833       70.69640
C         71.73646       94.67385       69.66207
O         72.04475       94.06626       68.64797
C         73.01104       96.57349       70.68001
C         73.09514       97.18823       69.29410
N         74.09142       96.88934       68.43172
O         72.22252       97.97080       68.94568
H         74.53074       94.28643       69.62296
H         72.38057       94.79342       71.69629
H         73.89368       96.84633       71.29679
H         72.12284       97.02896       71.17202
H         74.85114       96.25218       68.69392
H         74.10211       97.30886       67.48951
N         70.46182       95.13242       69.84145
C         69.41555       95.12906       68.82950
C         69.09843       93.77175       68.26057
O         68.74801       92.87195       69.01117
H         70.23275       95.59662       70.73334
H         69.72266       95.81548       68.01249
H         68.48723       95.54498       69.27780
N         69.15535       93.58043       66.90684
C         68.86992       92.30767       66.24128
C         70.01064       91.29703       66.49085
O         70.55729       91.46237       67.75229
C         68.73726       92.55564       64.71651
C         67.52629       93.40157       64.40692
C         66.24117       92.85669       64.56361
C         67.66003       94.72636       63.95768
C         65.10819       93.62108       64.27567
C         66.52320       95.49501       63.68294
C         65.24528       94.94568       63.83787
O         64.15951       95.69638       63.56296
H         69.38298       94.39735       66.31903
H         67.91623       91.89610       66.63984
H         68.63850       91.61696       64.13418
H         69.66988       93.05483       64.36741
H         66.11848       91.83383       64.89781
H         68.64025       95.16948       63.83301
H         64.12552       93.18209       64.39365
H         66.63524       96.51884       63.34862
H         63.25959       95.35152       63.65478
N         69.59429       89.90518       66.24948
C         70.58812       88.82476       66.47947
C         71.92802       89.07314       65.70458
O         72.97805       89.50063       66.52835
C         70.75835       88.47293       67.99503
C         71.60661       87.19519       68.23569
C         69.39330       88.35429       68.70017
C         71.00584       85.88919       67.70238
H         69.28086       89.83095       65.25554
H         70.10734       87.93323       66.02126
H         71.30150       89.30067       68.49544
H         71.76039       87.07324       69.33057
H         72.60366       87.33009       67.77747
H         69.53522       88.11816       69.77652
H         68.83887       89.31450       68.64311
H         68.76313       87.56816       68.23587
H         70.03046       85.67092       68.18331
H         70.87842       85.91838       66.60222
H         71.69180       85.04934       67.94060
N         72.32416       87.91165       64.88967
C         73.66630       88.07907       64.27679
C         73.82470       87.36233       62.94921
O         74.82224       87.60902       62.28287
C         74.77021       87.53869       65.21088
O         74.64910       86.15191       65.38920
H         71.60600       87.94293       64.13134
H         73.82532       89.15771       64.06358
H         74.77262       88.03582       66.18988
H         75.77004       87.74256       64.77047
H         73.82456       86.00087       65.91948
N         72.92689       86.43739       62.50784
C         73.09642       85.74624       61.23994
C         73.02366       86.71466       60.06609
O         72.53574       87.82144       60.25188
C         72.00150       84.69611       61.09970
H         72.12608       86.17677       63.10008
H         74.09367       85.25445       61.26073
H         70.99773       85.16823       61.15537
H         72.08366       84.21348       60.12591
H         72.09349       83.93727       61.90673
N         73.52496       86.42640       58.82648
C         74.28653       85.22974       58.47522
C         74.01653       84.82775       57.02847
O         74.18729       85.67785       56.16490
C         75.77858       85.55632       58.61116
H         73.50080       87.19009       58.13168
H         74.08982       84.39787       59.17200
H         76.06531       86.39800       57.94370
H         76.01233       85.84675       59.65764
H         76.39175       84.66681       58.35081
N         73.67394       83.56619       56.62678
C         73.45834       82.41615       57.49814
C         72.10802       82.49943       58.17889
O         71.99288       82.04338       59.30809
C         73.56315       81.10799       56.68552
C         73.49144       79.85770       57.58012
C         73.74205       78.60914       56.78765
O         74.78926       77.81867       57.09263
O         72.99845       78.29967       55.87066
H         73.61198       83.40702       55.60795
H         74.28244       82.36008       58.24380
H         74.55342       81.10781       56.17749
H         72.76891       81.06929       55.90721
H         72.49436       79.78066       58.06311
H         74.26426       79.93349       58.37652
N         71.03265       83.04001       57.53485
C         69.72320       83.18402       58.13881
H         68.97541       82.62104       57.54270
H         69.69480       82.81724       59.18603
H         69.44152       84.25875       58.14171
H         71.14042       83.38507       56.56956
Ca        72.59311       91.66423       66.93016
O         75.59592       90.78854       65.05600
H         76.00291       90.33422       64.27673
H         76.36706       91.16311       65.54536
O         73.02958       91.77526       63.70061
H         73.76405       91.57259       63.06815
H         72.32814       91.10901       63.49076
O         72.66263       94.43317       65.32823
H         72.86332       94.45228       64.35882
H         72.14770       95.26273       65.49137

Ca 1.0



