%chk=apoCaM-CA-Ng.loop1.water5.frame501.chk
%nprocshared=20
%mem=10GB
%nosave
#b3lyp/svp scf=(tight,noincore,xqc) Test 
#IOP(5/87=12) Density=Current Pop=(MK,readradii) iop(6/33=2) iop(6/42=6)

apoCaM-CA-Ng.loop1.water5.frame501 

   0  1 
C         65.48883       54.21696       14.38191
C         66.00616       55.29542       13.47430
O         66.10651       55.06083       12.27938
H         64.46883       53.91808       14.06379
H         66.16191       53.33550       14.33130
H         65.44252       54.56062       15.43732
N         66.36252       56.50895       13.98464
C         66.90581       57.62452       13.21430
C         65.88922       58.19395       12.22706
O         64.83877       57.60845       12.00360
C         68.25340       57.22007       12.56102
C         68.99242       58.36037       11.91829
O         69.38952       59.41356       12.65878
O         69.24757       58.33227       10.72467
H         66.26290       56.65711       15.00107
H         67.11067       58.43647       13.94908
H         68.08269       56.42965       11.80158
H         68.91842       56.80428       13.34818
N         66.12749       59.41356       11.66956
C         65.22507       60.15243       10.79938
C         63.91765       60.40862       11.53420
O         62.84312       60.12978       11.02197
C         65.10527       59.46622        9.41618
C         64.79224       60.48306        8.29994
C         64.86137       59.86658        6.88902
C         63.68955       58.94039        6.52829
N         62.42615       59.67628        6.43681
H         66.98739       59.91115       11.93461
H         65.71576       61.13909       10.63937
H         64.39199       58.61495        9.45205
H         66.10720       59.05344        9.16389
H         65.59654       61.25136        8.33461
H         63.83163       61.00743        8.47288
H         65.81790       59.30622        6.79108
H         64.88677       60.68627        6.13839
H         63.60050       58.10728        7.25736
H         63.90583       58.49568        5.53103
H         61.67716       59.02990        6.10046
H         62.14364       60.05124        7.36908
H         62.51781       60.46237        5.75159
N         63.98822       60.90394       12.80464
C         62.86131       61.13725       13.70612
C         63.44212       61.65619       15.03062
O         64.19103       60.89905       15.63423
C         62.07437       59.82358       13.96488
C         60.91889       60.02292       14.90503
O         60.00853       60.77859       14.60771
O         60.87414       59.35268       16.07256
H         64.93380       61.11550       13.16150
H         62.18132       61.85308       13.21645
H         62.75954       59.05613       14.38722
H         61.65921       59.41872       13.02005
N         63.23836       62.90206       15.55939
C         62.38787       63.95530       15.02846
C         61.41083       64.38007       16.09135
O         61.37524       65.54719       16.45471
H         63.74526       63.12792       16.43093
H         61.81458       63.64442       14.14336
H         63.02117       64.82126       14.73892
N         60.61973       63.44505       16.67616
C         59.70172       63.73332       17.77269
C         59.37452       62.48438       18.56872
O         59.59555       61.39296       18.08243
C         58.44122       64.48210       17.28360
C         57.90839       64.04517       15.92765
O         57.49081       62.79538       15.62685
O         57.85624       64.88144       15.03945
H         60.74933       62.47191       16.37015
H         60.24390       64.35933       18.51747
H         58.72432       65.55180       17.16796
H         57.64499       64.44819       18.05769
N         58.89992       62.59535       19.84573
C         58.65775       61.48207       20.76126
C         59.93636       60.82778       21.28354
O         60.20907       60.94672       22.47027
H         58.69585       63.54203       20.20364
H         57.97787       60.73592       20.30398
H         58.13061       61.90047       21.64889
N         60.75703       60.10929       20.46710
C         61.99292       59.45218       20.86890
C         61.91636       57.98743       20.46581
O         61.76828       57.70849       19.28317
C         63.21079       60.17401       20.22966
C         63.11057       60.38892       18.70710
O         63.35197       61.43021       20.84148
H         60.50095       59.98626       19.49028
H         62.13151       59.50945       21.97165
H         64.10994       59.55299       20.45514
H         64.30813       61.68648       20.75843
H         64.03203       60.88903       18.34519
H         63.00501       59.43896       18.15041
H         62.25749       61.05412       18.45597
N         61.94677       56.99318       21.40156
C         61.75331       55.58584       21.05407
C         60.36092       55.10764       21.43984
O         60.03463       53.97690       21.11383
C         62.86186       54.66157       21.63234
C         62.87340       54.65031       23.18236
C         64.23302       55.04038       21.04600
C         63.72328       53.51644       23.76079
H         62.02082       57.25184       22.39761
H         61.78121       55.46172       19.94838
H         62.62476       53.63076       21.28446
H         61.84155       54.48250       23.55775
H         63.23023       55.62591       23.57599
H         64.19249       55.01194       19.93592
H         64.53118       56.06146       21.36484
H         65.01747       54.32324       21.36012
H         63.65998       53.53555       24.86902
H         63.33529       52.53615       23.40757
H         64.78946       53.61065       23.47611
N         59.46523       55.92807       22.06889
C         58.07524       55.55073       22.29771
C         57.71489       55.60397       23.76718
O         58.54487       55.94741       24.59511
C         57.15193       56.45271       21.43586
C         57.21248       57.93871       21.81655
O         57.50159       56.31741       20.08424
H         59.74491       56.87648       22.34549
H         57.89759       54.50310       21.97332
H         56.09064       56.14282       21.55961
H         57.20409       55.41499       19.79646
H         56.90880       58.08493       22.87475
H         58.22799       58.35829       21.66917
H         56.51426       58.51503       21.17388
N         56.45275       55.25356       24.14479
C         55.98593       55.24394       25.51864
C         55.55845       53.82774       25.86661
O         56.12687       53.25677       26.78848
C         54.86355       56.30497       25.69100
C         54.34805       56.38001       27.13180
O         53.79209       56.05217       24.81914
H         55.78266       54.96977       23.41751
H         56.80659       55.53791       26.21148
H         55.31799       57.29153       25.43285
H         53.30160       56.90765       24.70221
H         55.18029       56.61681       27.82751
H         53.58583       57.18484       27.21376
H         53.87844       55.42015       27.43306
N         54.55723       53.20284       25.17946
C         54.05990       51.87479       25.50543
C         53.98664       51.01043       24.24674
O         53.23382       51.34233       23.34087
C         52.69602       52.06691       26.18930
C         52.01187       50.75935       26.57622
C         50.74668       51.03943       27.39665
C         49.90788       49.78121       27.66908
N         50.64722       48.75554       28.40568
H         54.06931       53.71177       24.42855
H         54.72793       51.38157       26.24602
H         52.01542       52.64566       25.52527
H         52.87331       52.66739       27.10992
H         52.71141       50.13460       27.17115
H         51.73736       50.23524       25.64487
H         50.10015       51.75292       26.84007
H         51.03718       51.51337       28.36026
H         49.54529       49.35787       26.70621
H         49.02015       50.08778       28.26534
H         51.41227       48.36211       27.81455
H         51.04360       49.15236       29.28782
H         49.99340       47.97573       28.64507
N         54.77392       49.89955       24.11896
C         54.79560       49.03619       22.93355
C         56.01609       49.33206       22.05806
O         55.78338       49.74327       20.92919
C         54.69959       47.52590       23.29075
C         53.27613       46.99452       23.51417
C         52.53267       47.67806       24.61274
O         51.45952       48.20906       24.37569
O         53.01892       47.67331       25.86726
H         55.43123       49.69972       24.88355
H         53.92418       49.26556       22.27771
H         55.33399       47.27400       24.16274
H         55.07772       46.93358       22.42823
H         53.34111       45.91176       23.75877
H         52.70335       47.09292       22.56541
N         57.32802       49.16533       22.40598
C         57.85530       48.69441       23.66739
H         58.51813       49.47614       24.09309
H         57.09137       48.45754       24.41373
H         58.45527       47.77748       23.49012
H         58.03700       49.39634       21.69191
Ca        57.42486       60.78689       16.65091
O         55.38675       58.52930       16.23306
H         55.61033       57.60134       15.97047
H         55.14102       58.46407       17.18999
O         58.48619       58.72293       18.51858
H         57.55041       58.41155       18.59625
H         59.03094       57.89818       18.47171
O         58.32341       57.69725       15.12251
H         59.18511       57.21063       15.15173
H         57.80023       57.23295       14.42170
O         57.18855       60.50716       13.40626
H         56.26177       60.82881       13.53932
H         57.72150       61.33333       13.28892
O         55.75286       61.28137       18.88415
H         54.80718       60.99125       18.87453
H         55.77052       62.09620       18.32113

Ca 1.0



