%chk=apoCaM-CA-Ng.loop4.water3.frame240.chk
%nprocshared=20
%mem=10GB
%nosave
#b3lyp/svp scf=(tight,noincore,xqc) Test 
#IOP(5/87=12) Density=Current Pop=(MK,readradii) iop(6/33=2) iop(6/42=6)

apoCaM-CA-Ng.loop4.water3.frame240 

   -3  1 
C         16.19142       28.92475       83.85650
C         15.32964       30.03543       83.33913
O         14.61961       30.61525       84.13694
H         16.88386       29.33125       84.62595
H         15.55061       28.15130       84.33003
H         16.78919       28.45863       83.04827
N         15.36498       30.41871       82.02940
C         14.60344       31.54264       81.48695
C         14.85392       32.83471       82.24469
O         13.93967       33.39868       82.81746
C         13.12719       31.21059       81.13199
C         12.24465       30.36029       82.02551
O         11.83806       30.69136       83.26825
O         11.78939       29.33162       81.54955
H         16.01984       29.93631       81.39595
H         15.02012       31.77776       80.47944
H         13.18997       30.63262       80.17971
H         12.60125       32.15387       80.86780
N         16.11484       33.35931       82.21739
C         16.60323       34.62561       82.77029
C         16.07597       35.86030       82.03034
O         16.88319       36.55832       81.43129
C         16.42481       34.77764       84.30699
C         17.30305       35.94324       84.85454
C         16.71505       33.48169       85.07916
C         18.82470       35.70942       84.79553
H         16.83078       32.79511       81.73174
H         17.69563       34.59416       82.57847
H         15.36088       35.02712       84.51085
H         17.02983       36.10929       85.91217
H         17.07720       36.88307       84.30823
H         15.99551       32.69468       84.78742
H         17.73753       33.10306       84.88250
H         16.58935       33.65655       86.16916
H         19.35111       36.58149       85.23574
H         19.11685       34.81454       85.38012
H         19.19856       35.59194       83.76027
N         14.75712       36.21822       82.04450
C         14.25471       37.43019       81.40539
C         14.74544       38.67160       82.13451
O         15.34329       39.50481       81.46842
C         12.71913       37.44979       81.28575
C         12.20572       36.26551       80.51504
O         11.33481       35.41510       81.08764
O         12.56535       36.07517       79.36402
H         14.07767       35.62527       82.52473
H         14.62071       37.45342       80.35281
H         12.40689       38.37305       80.75088
H         12.24773       37.47668       82.27435
N         14.60026       38.90220       83.47867
C         14.03407       37.99385       84.47571
C         13.29396       38.73973       85.57305
O         13.76045       39.81232       85.93157
H         15.05261       39.75713       83.84013
H         14.90325       37.55562       85.00290
H         13.47841       37.14830       84.05887
N         12.23656       38.24094       86.28860
C         11.53678       36.96617       86.15329
C         12.51997       35.79610       86.17794
O         12.58023       35.05433       85.20785
C         10.60263       37.00459       84.92472
C          9.50083       35.97687       84.95744
O          9.32923       35.16758       86.01923
O          8.70833       35.91909       84.03148
H         11.90419       38.82367       87.06720
H         10.85567       36.88289       87.03014
H         11.18885       36.88310       84.00491
H         10.09468       37.99278       84.89175
N         13.38786       35.58608       87.21179
C         13.40087       36.33232       88.45445
C         14.58560       37.25244       88.51253
O         15.40965       37.25676       87.60816
H         14.11389       34.86900       87.10264
H         13.39533       35.63000       89.31605
H         12.49816       36.96228       88.55154
N         14.67289       38.15011       89.52693
C         15.65924       39.21776       89.52537
C         17.08385       38.73184       89.80577
O         17.98283       39.54121       89.62996
C         15.26294       40.33853       90.51812
C         14.03622       41.19040       90.10355
C         12.70685       40.47785       90.05014
N         11.94506       40.52166       88.93130
O         12.28964       39.89699       91.04073
H         13.93765       38.13545       90.24837
H         15.66706       39.67708       88.51004
H         16.10325       41.06414       90.56852
H         15.12314       39.91436       91.53629
H         14.24645       41.67070       89.12258
H         13.92896       42.00112       90.85452
H         12.25993       41.03133       88.09223
H         11.02329       40.05927       88.90585
N         17.38285       37.46894       90.25163
C         18.76835       37.02938       90.49611
C         19.08071       36.81890       91.96364
O         20.25407       36.64970       92.27669
C         19.11524       35.72595       89.72836
C         19.00971       35.92265       88.22171
C         18.24858       34.53084       90.16714
H         16.61364       36.81461       90.44600
H         19.47267       37.82287       90.16399
H         20.17576       35.46659       89.94895
H         17.96825       36.17338       87.94518
H         19.68571       36.73950       87.89230
H         19.31262       34.98722       87.70629
H         18.59593       33.61392       89.64817
H         18.33701       34.34949       91.25937
H         17.17849       34.68941       89.91970
N         18.11300       36.77788       92.91475
C         18.40038       36.58246       94.32495
C         17.83083       35.25791       94.80284
O         18.58555       34.48089       95.36942
C         17.85680       37.78198       95.11859
C         18.55491       39.05619       94.69744
N         17.86656       40.07584       94.13360
O         19.76170       39.16334       94.86248
H         17.12537       36.88698       92.64337
H         19.49761       36.54456       94.51948
H         18.03706       37.63154       96.20490
H         16.76197       37.86898       94.95350
H         16.85111       40.00754       93.97569
H         18.35500       40.93653       93.84343
N         16.51616       34.93002       94.62269
C         15.91482       33.72319       95.19505
C         15.28592       32.82297       94.14927
O         14.80504       33.32744       93.14871
C         14.79264       34.15129       96.15659
C         15.31321       35.07128       97.22396
C         15.89512       34.55287       98.38875
C         15.23745       36.46194       97.04677
C         16.38973       35.41791       99.36885
C         15.74491       37.32424       98.01898
C         16.31971       36.80772       99.18404
O         16.80112       37.65385      100.11565
H         15.90184       35.58652       94.11914
H         16.66730       33.13308       95.76317
H         14.29065       33.27415       96.62184
H         14.01300       34.68439       95.56621
H         15.95854       33.48194       98.53832
H         14.80139       36.87742       96.14623
H         16.82968       35.00705      100.26812
H         15.69357       38.39429       97.86244
H         17.20380       37.33788      100.93660
N         15.07636       31.50315       94.45994
C         14.25429       30.52799       93.73532
C         14.86168       29.99316       92.44004
O         15.03675       28.78574       92.34426
C         12.81726       31.04926       93.53532
C         11.85133       29.91004       93.16945
C         10.45315       30.42339       92.98998
O          9.87347       30.26443       91.92782
O          9.82468       31.04794       94.00466
H         15.44323       31.17860       95.36825
H         14.16577       29.64972       94.41818
H         12.79729       31.83749       92.75289
H         12.46712       31.49297       94.49376
H         11.84440       29.15714       93.98877
H         12.18575       29.40830       92.23593
N         15.18528       30.80837       91.39643
C         15.70178       30.33161       90.11362
C         16.94421       29.47078       90.28366
O         17.18951       28.63468       89.42478
C         16.08088       31.52348       89.20149
C         14.95597       32.51424       88.84720
C         13.97629       31.97594       87.84746
O         13.88294       32.58904       86.65006
O         13.26250       31.02280       88.11190
H         15.05594       31.81125       91.51090
H         14.91758       29.70748       89.63176
H         16.53726       31.16101       88.25317
H         16.85714       32.09341       89.75059
H         15.44836       33.39427       88.38205
H         14.41965       32.88724       89.74198
N         17.78208       29.63100       91.34871
C         18.96786       28.82553       91.55837
H         19.86027       29.48445       91.58324
H         18.88196       28.29727       92.53097
H         19.11330       28.06566       90.76194
H         17.58186       30.35699       92.05190
Ca        12.57043       32.01881       84.92196
O         10.30591       33.38695       83.08758
H         11.26689       33.48724       82.87432
H          9.90600       33.02385       82.25807
O         10.18495       32.21405       86.62720
H          9.43221       32.45276       87.22287
H         10.56200       33.08032       86.33557
O         11.09598       29.36746       85.93582
H         10.42007       29.59202       86.62323
H         11.94937       29.70024       86.30993

Ca 1.0



