%chk=apoCaM-CA-Ng.loop2.water3.frame435.chk
%nprocshared=20
%mem=10GB
%nosave
#b3lyp/svp scf=(tight,noincore,xqc) Test 
#IOP(5/87=12) Density=Current Pop=(MK,readradii) iop(6/33=2) iop(6/42=6)

apoCaM-CA-Ng.loop2.water3.frame435 

   -2  1 
C        105.79633       93.65938       70.72731
C        106.62412       93.76744       69.48053
O        107.74933       93.29031       69.46902
H        104.86395       93.09754       70.50994
H        106.35463       93.12805       71.52824
H        105.53525       94.67509       71.09075
N        106.11779       94.38340       68.37517
C        106.87092       94.52732       67.13275
C        108.08435       95.40600       67.37107
O        107.91683       96.55816       67.74918
C        105.97304       95.13863       66.03542
C        106.63721       95.24184       64.68457
O        106.01426       95.71347       63.74753
O        107.90035       94.81517       64.48605
H        105.15330       94.74812       68.42302
H        107.17783       93.51256       66.79306
H        105.64253       96.15226       66.35261
H        105.07069       94.49987       65.91929
N        109.34377       94.91340       67.19081
C        110.54350       95.69264       67.47538
C        110.51250       96.14113       68.91770
O        110.62816       97.33254       69.16685
C        111.80609       94.87298       67.19244
H        109.45007       93.93732       66.87354
H        110.57473       96.58494       66.80930
H        111.84224       93.95970       67.82248
H        111.82543       94.57276       66.12270
H        112.70965       95.48787       67.39534
N        110.27033       95.23552       69.91187
C        110.06664       95.59180       71.30914
C        111.35018       96.16235       71.87423
O        111.39391       97.32183       72.26338
C        108.83278       96.52356       71.44348
C        108.41447       96.77737       72.86573
O        107.45870       97.50302       73.08596
O        109.06550       96.20813       73.89909
H        110.16987       94.24125       69.65906
H        109.82955       94.66159       71.87353
H        107.97107       96.04923       70.92536
H        109.02557       97.50279       70.96008
N        112.45320       95.36636       71.93493
C        113.75399       95.82806       72.37995
C        114.23479       95.14017       73.63597
O        115.36149       95.41814       74.02186
H        112.37503       94.38357       71.62955
H        113.75515       96.92119       72.57915
H        114.47913       95.63475       71.56093
N        113.45549       94.27408       74.35469
C        113.91080       93.66319       75.60176
C        113.90624       92.14404       75.51829
O        113.46155       91.57577       74.53035
C        113.06387       94.19960       76.77092
C        113.26248       95.69333       76.91051
N        112.23563       96.55626       76.73250
O        114.37363       96.12808       77.17780
H        112.49357       94.06873       74.04620
H        114.96987       93.93881       75.80159
H        113.36723       93.72562       77.72895
H        111.99392       93.95740       76.59004
H        111.29267       96.21722       76.49593
H        112.38922       97.57255       76.81933
N        114.50944       91.43284       76.51042
C        114.83053       90.01923       76.41744
C        113.76597       89.09716       76.95495
O        113.28600       89.32450       78.05724
H        114.94974       91.96002       77.28067
H        115.70117       89.85039       77.08812
H        115.18425       89.74703       75.39915
N        113.48371       87.92979       76.30249
C        112.71341       86.85895       76.93550
C        111.24313       87.18752       77.12114
O        110.62459       86.54400       77.95762
C        112.90592       85.48150       76.24329
C        112.39018       85.42123       74.79811
O        114.25349       85.08033       76.30486
H        113.96355       87.74802       75.40947
H        113.13893       86.73280       77.95814
H        112.32584       84.72949       76.82282
H        114.77612       85.63842       75.67323
H        111.31255       85.66000       74.76235
H        112.93391       86.12958       74.14082
H        112.52954       84.39442       74.39811
N        110.60791       88.14820       76.38760
C        109.21961       88.53476       76.64288
C        109.13622       90.01570       76.94007
O        110.10703       90.73674       76.75198
C        108.26998       88.18191       75.45439
C        108.66229       88.92128       74.14597
C        108.19395       86.65993       75.25984
C        107.62215       88.77834       73.03277
H        111.12555       88.63417       75.64077
H        108.83704       88.01093       77.54637
H        107.24742       88.51564       75.73847
H        109.64735       88.56313       73.77821
H        108.74388       90.01004       74.35057
H        107.43277       86.38865       74.50129
H        109.17082       86.25559       74.93944
H        107.89548       86.16805       76.20989
H        106.63825       89.16316       73.37797
H        107.94101       89.37546       72.15236
H        107.51258       87.72550       72.70618
N        107.96196       90.53585       77.38920
C        107.72053       91.96008       77.53529
C        107.58186       92.34914       79.00716
O        107.31001       93.50911       79.28181
C        106.48150       92.28645       76.67137
C        106.28766       93.73843       76.33413
O        105.35138       94.06019       75.61983
O        107.15346       94.68343       76.74366
H        107.18200       89.89486       77.60464
H        108.58023       92.53390       77.12458
H        105.57078       91.87077       77.15524
H        106.60759       91.78136       75.68699
N        107.85179       91.45762       80.01275
C        107.87110       91.83298       81.42319
C        106.46507       92.09294       81.93019
O        105.65552       91.17784       81.87286
C        108.56794       90.73825       82.26468
C        108.76604       91.18075       83.69875
C        110.03570       91.60005       84.13271
C        107.69360       91.19683       84.61041
C        110.22393       92.04296       85.44475
C        107.88845       91.63294       85.92372
C        109.15141       92.06024       86.33937
H        108.14652       90.49986       79.77346
H        108.52201       92.72635       81.52078
H        109.56635       90.57964       81.79943
H        108.03603       89.76203       82.22746
H        110.87698       91.60302       83.45086
H        106.70729       90.86803       84.31253
H        111.20171       92.37711       85.76598
H        107.05867       91.64188       86.61865
H        109.29930       92.40415       87.35461
N        106.09171       93.29211       82.47621
C        104.77013       93.55017       83.02646
C        103.71367       93.76922       81.94814
O        102.57978       94.05019       82.31002
C        105.00141       94.78824       83.90036
C        106.03828       95.54790       83.10471
C        106.97517       94.42706       82.66430
H        104.43144       92.72637       83.69404
H        104.08776       95.35392       84.18192
H        105.50465       94.45780       84.83938
H        105.52573       95.95542       82.20521
H        106.54147       96.38219       83.63786
H        107.49526       94.74270       81.73546
H        107.71221       94.16583       83.45617
N        103.99067       93.62253       80.61826
C        102.99739       93.76277       79.56120
C        102.73568       92.42791       78.86909
O        101.88610       92.39657       77.98937
C        103.49467       94.79208       78.52888
C        103.70419       96.18582       79.13222
C        104.25873       97.13460       78.10891
O        105.44272       97.73820       78.32674
O        103.64060       97.37006       77.08254
H        104.94137       93.37714       80.31767
H        102.02339       94.10366       79.97575
H        102.76162       94.87044       77.69561
H        104.45803       94.43070       78.11824
H        104.41995       96.12633       79.97915
H        102.73655       96.57871       79.50956
N        103.40516       91.28580       79.20949
C        103.16875       89.99897       78.58839
H        102.37172       90.03723       77.81766
H        104.10681       89.64437       78.11181
H        102.86700       89.26875       79.36887
H        104.12324       91.30134       79.94134
Ca       106.85489       96.78662       75.98530
O        104.57838       96.42181       73.28683
H        103.64107       96.10577       73.24556
H        104.68323       96.99207       72.48399
O        105.46373       99.42923       74.97463
H        106.06786      100.10072       74.56895
H        105.26593       99.78576       75.87701
O        109.19041       98.67724       76.31046
H        109.39320       98.12373       77.10607
H        109.65026       98.21624       75.56500

Ca 1.0



