%chk=apoCaM-CA-Ng.loop2.water2.frame927.chk
%nprocshared=20
%mem=10GB
%nosave
#b3lyp/svp scf=(tight,noincore,xqc) Test 
#IOP(5/87=12) Density=Current Pop=(MK,readradii) iop(6/33=2) iop(6/42=6)

apoCaM-CA-Ng.loop2.water2.frame927 

   -2  1 
C         -8.76752       16.20138       86.64484
C         -8.26740       15.32525       85.53520
O         -7.75868       15.83750       84.54785
H         -9.85504       16.03255       86.79240
H         -8.22972       15.95504       87.58427
H         -8.60152       17.27382       86.40738
N         -8.39133       13.97167       85.63083
C         -7.95763       13.05761       84.57698
C         -6.42921       13.00722       84.41999
O         -5.96704       12.32740       83.51439
C         -8.53149       11.64910       84.85861
C         -8.35384       10.70338       83.70257
O         -7.66232        9.55969       83.86326
O         -8.85252       10.95978       82.61763
H         -8.86328       13.58841       86.46551
H         -8.41328       13.41363       83.62526
H         -9.62587       11.73359       85.03985
H         -8.06078       11.23130       85.77534
N         -5.58487       13.70113       85.24436
C         -4.12956       13.70127       85.11658
C         -3.50399       13.30526       86.45087
O         -3.82014       13.96043       87.43492
C         -3.67115       15.11076       84.72982
H         -5.97494       14.28265       85.99764
H         -3.81317       13.02247       84.30271
H         -2.56637       15.14682       84.62615
H         -4.12411       15.39786       83.75661
H         -3.98150       15.85380       85.49548
N         -2.63484       12.26199       86.62611
C         -2.10607       11.39889       85.56806
C         -1.44255       10.13653       86.12992
O         -1.28571        9.99929       87.33485
C         -1.10829       12.16872       84.66256
C          0.06234       12.72734       85.43073
O          1.19893       12.37128       85.16497
O         -0.13443       13.65200       86.39054
H         -2.34746       12.07680       87.59918
H         -2.96541       11.02664       84.96918
H         -1.60225       13.01600       84.15404
H         -0.73906       11.49049       83.86344
N         -1.10483        9.12495       85.28080
C         -0.60300        7.83101       85.71678
C          0.56178        7.38957       84.86246
O          0.35873        6.49886       84.04925
H         -1.31389        9.23542       84.27645
H         -1.42866        7.10706       85.53962
H         -0.36703        7.78497       86.79937
N          1.80882        7.93377       84.92501
C          2.26727        8.91974       85.89637
C          2.33184        8.28340       87.28635
O          2.97789        7.25356       87.42446
C          3.67147        9.41684       85.45331
C          4.23042       10.52413       86.29898
N          5.42816       11.07976       86.00770
O          3.59821       10.93317       87.24997
H          2.49352        7.59170       84.23045
H          1.58643        9.79847       85.88140
H          3.59020        9.81177       84.41672
H          4.39160        8.57036       85.45280
H          5.97950       10.75065       85.20272
H          5.80295       11.84535       86.58825
N          1.69961        8.84703       88.36092
C          1.67407        8.24716       89.69429
C          2.38790        9.06155       90.76603
O          2.38798        8.62611       91.90770
H          1.19632        9.73431       88.22814
H          2.15216        7.24375       89.68730
H          0.61324        8.10710       89.99086
N          3.07034       10.20394       90.47249
C          3.90032       10.94344       91.42466
C          3.52379       12.42768       91.45076
O          2.59780       12.83678       90.77013
C          5.39317       10.76654       90.99922
C          5.86228        9.32514       91.20349
O          5.58896       11.10042       89.64978
H          3.07815       10.53455       89.50481
H          3.79065       10.55430       92.46073
H          6.06633       11.38662       91.62824
H          5.20763       12.00184       89.51447
H          5.76811        9.03954       92.27288
H          5.27219        8.62013       90.58207
H          6.93197        9.23770       90.91399
N          4.26227       13.29766       92.20136
C          4.12072       14.75344       92.18280
C          5.41652       15.30935       91.60311
O          6.46930       15.00540       92.14576
C          3.85152       15.26489       93.63002
C          3.91547       16.80954       93.77432
C          2.51062       14.71688       94.15316
C          2.91910       17.58469       92.91524
H          5.02026       12.91661       92.78583
H          3.27727       15.06633       91.53014
H          4.65148       14.86685       94.29425
H          4.93749       17.15730       93.51108
H          3.74471       17.07800       94.84005
H          2.51427       13.60662       94.15252
H          2.33730       15.05299       95.19772
H          1.66324       15.05652       93.52184
H          3.10811       17.38305       91.84576
H          1.87265       17.32109       93.16865
H          3.05275       18.67331       93.08866
N          5.41916       16.09660       90.47943
C          6.65862       16.49038       89.79719
C          6.91076       17.98108       89.81164
O          7.97195       18.36825       89.33383
C          6.62645       16.05964       88.31235
C          6.07198       14.69180       88.13546
O          6.59707       13.72509       88.66037
O          4.90659       14.58732       87.46957
H          4.52170       16.37534       90.06067
H          7.52231       15.99601       90.29163
H          7.63512       16.14372       87.85286
H          5.94033       16.74398       87.76247
N          5.99648       18.89074       90.26054
C          6.25740       20.32254       90.18171
C          5.01775       21.13507       90.54330
O          4.53531       20.98632       91.66042
C          7.41178       20.71531       91.13680
C          7.81343       22.15460       90.94189
C          7.61171       23.09734       91.96159
C          8.39714       22.56427       89.72966
C          7.97969       24.43182       91.76670
C          8.76665       23.89776       89.54047
C          8.55637       24.83172       90.55764
H          5.08022       18.56838       90.60778
H          6.56132       20.54356       89.13843
H          8.31901       20.10028       90.97293
H          7.08232       20.52630       92.18248
H          7.16274       22.80212       92.90159
H          8.56721       21.85104       88.93213
H          7.81670       25.15626       92.55337
H          9.21530       24.20599       88.60487
H          8.84122       25.86478       90.40900
N          4.46458       22.05565       89.69162
C          3.38901       22.95456       90.07579
C          2.01543       22.30216       90.05083
O          1.05678       22.98771       90.37788
C          3.50622       24.08702       89.05009
C          3.91358       23.33080       87.80319
C          4.95380       22.36095       88.35876
H          3.56273       23.38269       91.08870
H          2.61335       24.74118       88.95497
H          4.37514       24.72558       89.33386
H          3.02679       22.74764       87.46529
H          4.27345       23.95239       86.95602
H          5.01294       21.46953       87.69790
H          5.94777       22.84682       88.45172
N          1.82490       21.00202       89.67551
C          0.49739       20.38920       89.65698
C         -0.12617       20.26562       91.04630
O         -1.28992       19.89419       91.11699
C          0.52431       19.01133       88.95458
C          1.35660       17.95331       89.69599
C          1.35634       16.65396       88.94895
O          2.51359       16.14643       88.49096
O          0.31345       16.04987       88.75551
H          2.63108       20.45485       89.34792
H         -0.15796       21.04549       89.04130
H          0.93426       19.14626       87.92918
H         -0.52006       18.64016       88.85523
H          0.94138       17.77908       90.71094
H          2.40533       18.29957       89.79539
N          0.57261       20.53977       92.18842
C          0.00178       20.44028       93.51676
H         -1.06234       20.12459       93.50224
H          0.57928       19.70147       94.11054
H          0.06426       21.42988       94.01636
H          1.55989       20.82474       92.13980
Ca         3.16383       13.33442       88.10779
O          2.84481       15.56516       85.55020
H          3.36987       15.40890       84.72571
H          2.98318       16.52424       85.75451
O          0.16800       11.97756       89.33406
H         -0.15861       12.89594       89.50531
H          0.45418       11.99126       88.38690

Ca 1.0



