%chk=apoCaM-CA-Ng.loop4.water4.frame60.chk
%nprocshared=20
%mem=10GB
%nosave
#b3lyp/svp scf=(tight,noincore,xqc) Test 
#IOP(5/87=12) Density=Current Pop=(MK,readradii) iop(6/33=2) iop(6/42=6)

apoCaM-CA-Ng.loop4.water4.frame60 

   -3  1 
C         35.23984       44.00398       83.19057
C         33.82775       43.55592       82.97277
O         32.93696       44.39009       83.00545
H         35.84432       43.77757       82.28773
H         35.27698       45.09987       83.37610
H         35.66870       43.47779       84.06769
N         33.55260       42.24443       82.71223
C         32.21258       41.73069       82.44580
C         31.59031       42.42266       81.25049
O         30.53709       43.01858       81.36331
C         31.34204       41.58570       83.72945
C         31.41344       42.63376       84.82324
O         30.94146       43.89192       84.71277
O         31.88704       42.30442       85.89990
H         34.34109       41.58262       82.64726
H         32.30596       40.67685       82.09352
H         31.72633       40.65866       84.21491
H         30.28819       41.36334       83.45618
N         32.22094       42.30578       80.04442
C         31.79006       42.79435       78.73315
C         30.53361       42.06099       78.25501
O         30.65173       41.24101       77.35477
C         31.69592       44.34767       78.63827
C         31.60971       44.83895       77.16399
C         32.86068       45.04510       79.36415
C         32.87413       44.59831       76.31873
H         33.11196       41.78350       80.04237
H         32.61026       42.48272       78.05339
H         30.77247       44.67342       79.15567
H         31.42498       45.93474       77.16732
H         30.74609       44.35502       76.66062
H         33.84441       44.72158       78.96800
H         32.76863       46.14749       79.26787
H         32.83524       44.81040       80.44509
H         32.71182       44.98401       75.29236
H         33.74827       45.13668       76.74173
H         33.12273       43.52387       76.22334
N         29.30609       42.28165       78.81267
C         28.12412       41.48670       78.50287
C         27.33200       42.07013       77.32723
O         27.19929       41.35267       76.34562
C         27.31165       41.23067       79.79784
C         26.08093       40.40402       79.55129
O         26.18844       39.16432       79.03703
O         24.97821       40.84798       79.83019
H         29.20387       43.00283       79.53203
H         28.45523       40.46941       78.18846
H         27.02570       42.17340       80.29551
H         27.95681       40.69137       80.52508
N         26.76812       43.31624       77.28860
C         26.86146       44.29016       78.36190
C         26.12192       45.59026       78.09348
O         25.49852       45.71413       77.04890
H         26.25549       43.56550       76.42914
H         27.92819       44.52341       78.51462
H         26.39534       43.85165       79.24349
N         26.12397       46.64372       78.97101
C         26.82441       46.73646       80.25569
C         28.32696       46.55549       80.07124
O         28.86914       45.60657       80.61451
C         26.23503       45.78699       81.33357
C         24.75831       45.99169       81.51690
O         23.98425       45.06350       81.34474
O         24.28222       47.19536       81.88838
H         25.59456       47.48375       78.68830
H         26.66230       47.75734       80.66774
H         26.73352       45.99201       82.30514
H         26.43425       44.72635       81.11375
N         29.10050       47.39341       79.32007
C         28.63922       48.60173       78.65707
C         28.81414       48.51611       77.16148
O         29.28833       47.50992       76.65138
H         30.10117       47.16536       79.22783
H         29.21639       49.46767       79.04538
H         27.57118       48.80129       78.86060
N         28.38597       49.54833       76.38374
C         28.39003       49.48812       74.92523
C         29.78123       49.64644       74.31727
O         29.88861       49.49101       73.10861
C         27.45933       50.57090       74.33056
C         26.00133       50.42871       74.81479
C         25.07014       51.44451       74.19763
N         23.76320       51.45334       74.54694
O         25.48251       52.26172       73.38670
H         27.95662       50.35828       76.85648
H         27.97696       48.49948       74.62120
H         27.46346       50.47248       73.22207
H         27.84348       51.58073       74.59797
H         25.95130       50.55691       75.91554
H         25.62789       49.41277       74.56256
H         23.39839       50.77634       75.23327
H         23.11485       52.14066       74.13503
N         30.87604       49.99450       75.05917
C         32.19830       50.22721       74.47096
C         32.63596       51.68277       74.59067
O         33.70344       51.99338       74.07772
C         33.26376       49.25788       75.04863
C         32.97914       47.81944       74.60499
C         33.38459       49.33411       76.57759
H         30.76899       50.14639       76.07131
H         32.17142       50.04765       73.37304
H         34.25080       49.53094       74.61159
H         33.79019       47.14958       74.95971
H         32.00547       47.46347       75.00158
H         32.95659       47.76153       73.49471
H         32.44991       48.99692       77.07247
H         34.20743       48.67297       76.92362
H         33.61330       50.37172       76.89884
N         31.84926       52.64430       75.16037
C         32.17697       54.06706       75.09603
C         32.22573       54.76872       76.44557
O         32.51537       55.95518       76.43038
C         31.17296       54.77439       74.14729
C         29.71496       54.73473       74.56092
N         28.78245       55.31879       73.77376
O         29.36457       54.18468       75.59401
H         30.94377       52.37663       75.56545
H         33.18130       54.21245       74.64115
H         31.25412       54.29900       73.14560
H         31.46924       55.84061       74.03563
H         29.05358       55.79005       72.89831
H         27.78634       55.29994       74.03893
N         31.98351       54.14451       77.63939
C         31.91322       54.88138       78.90681
C         31.91280       53.95499       80.11447
O         31.08442       53.05896       80.19293
C         30.61014       55.72845       78.99822
C         30.58867       56.95268       78.12090
C         29.63340       57.09187       77.10218
C         31.52590       57.98046       78.32837
C         29.63042       58.22820       76.28802
C         31.51705       59.11843       77.51841
C         30.57100       59.24383       76.49128
O         30.55468       60.33389       75.69837
H         31.83247       53.12548       77.65180
H         32.79960       55.54464       79.00660
H         30.48672       56.11221       80.03294
H         29.74307       55.06338       78.78754
H         28.89543       56.32049       76.93298
H         32.26350       57.89984       79.11732
H         28.89524       58.31880       75.49855
H         32.24657       59.89993       77.68978
H         31.18767       61.05799       75.80748
N         32.75706       54.22482       81.15896
C         32.70588       53.59054       82.47581
C         33.17248       52.14654       82.50344
O         33.14277       51.56695       83.58121
C         31.31753       53.77245       83.13572
C         30.95382       55.25967       83.27456
C         29.61987       55.43082       83.93932
O         29.42400       54.97360       85.19086
O         28.71036       55.99713       83.35433
H         33.41763       55.01123       81.06390
H         33.42961       54.12299       83.13460
H         31.34253       53.32778       84.15507
H         30.53221       53.24216       82.55894
H         30.92592       55.73494       82.27312
H         31.72423       55.78061       83.88327
N         33.71905       51.52997       81.41589
C         34.32714       50.20497       81.49456
C         35.84248       50.29897       81.37735
O         36.49499       49.26773       81.46990
C         33.75163       49.27996       80.40428
C         32.22402       49.14832       80.46760
C         31.75446       48.57364       81.77314
O         32.09883       47.45380       82.11577
O         30.95439       49.30041       82.57542
H         33.79099       52.03545       80.52105
H         34.12941       49.73804       82.48446
H         34.20573       48.26781       80.49815
H         34.02381       49.68555       79.40707
H         31.89211       48.49078       79.64046
H         31.76092       50.14597       80.31236
N         36.48438       51.49281       81.20572
C         37.92491       51.58868       81.13755
H         38.30728       50.98787       80.28629
H         38.22457       52.64871       80.99052
H         38.37167       51.22423       82.08685
H         35.95688       52.37332       81.12948
Ca        30.00214       45.06232       83.04237
O         28.46517       47.87651       83.19630
H         28.51322       48.30698       82.30671
H         27.89122       48.48020       83.73047
O         31.88699       46.64289       85.20457
H         31.95337       47.60044       85.44600
H         32.03171       46.15959       86.05674
O         27.61578       43.43355       83.78634
H         28.10337       42.87611       83.12900
H         26.68449       43.45428       83.45184
O         28.53930       46.05939       85.67441
H         28.53488       45.63602       86.56916
H         27.71255       46.60380       85.65286

Ca 1.0



