%chk=apoCaM-CA-Ng.loop4.water5.frame528.chk
%nprocshared=20
%mem=10GB
%nosave
#b3lyp/svp scf=(tight,noincore,xqc) Test 
#IOP(5/87=12) Density=Current Pop=(MK,readradii) iop(6/33=2) iop(6/42=6)

apoCaM-CA-Ng.loop4.water5.frame528 

   -3  1 
C         79.07604      -13.83158       65.38177
C         78.66703      -15.10390       66.05033
O         78.24814      -15.06015       67.19551
H         80.14789      -13.89280       65.10210
H         78.45963      -13.67542       64.47255
H         78.93200      -12.96886       66.06763
N         78.74511      -16.28770       65.37979
C         78.37405      -17.57008       65.96229
C         76.91894      -17.55152       66.41926
O         76.62405      -17.94099       67.53915
C         79.40688      -17.97345       67.05576
C         80.71685      -18.39711       66.42143
O         81.89873      -17.75687       66.60164
O         80.71557      -19.39542       65.71869
H         79.06591      -16.28109       64.39973
H         78.40697      -18.34427       65.16308
H         79.03819      -18.85946       67.61884
H         79.55022      -17.15140       67.78779
N         75.94898      -17.12742       65.55521
C         74.51300      -17.14303       65.84852
C         73.79753      -18.02860       64.82844
O         74.37228      -18.28230       63.77830
C         73.92171      -15.68776       65.85522
C         74.18226      -14.92379       64.52778
C         74.44685      -14.91778       67.07361
C         73.51241      -13.54673       64.46465
H         76.24840      -16.79817       64.62533
H         74.35236      -17.59495       66.84512
H         72.82622      -15.74306       65.98256
H         73.77559      -15.52218       63.68498
H         75.27120      -14.78069       64.36702
H         73.95037      -13.93125       67.17631
H         74.20175      -15.48877       67.99040
H         75.54364      -14.77081       67.01417
H         73.92727      -12.85656       65.22702
H         73.70147      -13.09018       63.47000
H         72.41504      -13.63953       64.60801
N         72.54088      -18.53872       65.00897
C         71.74032      -18.44164       66.22715
C         72.36035      -19.22109       67.37461
O         72.60180      -18.63628       68.42123
C         70.27079      -18.88977       65.99158
C         70.05443      -20.33815       65.62960
O         70.51710      -20.80443       64.60135
O         69.30713      -21.12159       66.43065
H         72.13694      -19.04584       64.20849
H         71.64133      -17.38304       66.52405
H         69.83053      -18.25999       65.18896
H         69.70087      -18.68464       66.92516
N         72.62515      -20.55366       67.25799
C         73.03552      -21.38002       68.37798
C         71.88729      -21.49544       69.35141
O         70.81463      -21.91872       68.94255
H         72.49583      -21.01962       66.34913
H         73.95739      -20.97164       68.84749
H         73.26224      -22.40444       68.01098
N         72.03124      -21.14360       70.65812
C         70.92450      -21.21823       71.61121
C         69.79476      -20.22657       71.32193
O         68.77136      -20.34027       71.98057
C         71.42821      -21.10254       73.07779
C         72.42007      -19.99649       73.34864
O         72.13562      -18.82752       73.17304
O         73.65029      -20.30830       73.79945
H         72.96499      -20.84958       70.98003
H         70.46613      -22.23028       71.53189
H         71.94794      -22.05213       73.32619
H         70.56173      -21.01570       73.77079
N         69.87097      -19.24472       70.37204
C         68.78498      -18.29652       70.13349
C         68.53251      -17.36247       71.31184
O         67.57381      -16.60662       71.27087
H         70.71290      -19.15421       69.79713
H         67.86268      -18.86820       69.89617
H         69.02932      -17.66230       69.25259
N         69.38371      -17.33621       72.37438
C         69.28746      -16.49318       73.55727
C         69.34462      -15.01712       73.18720
O         68.59017      -14.21557       73.71977
C         68.09272      -16.89880       74.45252
C         68.16132      -18.39593       74.82748
C         67.07794      -18.84881       75.77466
N         67.02371      -20.14688       76.15702
O         66.24987      -18.05817       76.20257
H         70.20652      -17.93462       72.34332
H         70.20846      -16.68456       74.15461
H         67.13259      -16.69502       73.93113
H         68.13011      -16.29398       75.38445
H         69.14332      -18.61589       75.29973
H         68.06857      -19.00080       73.90601
H         67.71170      -20.82895       75.80357
H         66.29284      -20.47435       76.80613
N         70.23658      -14.60786       72.24055
C         70.42575      -13.22809       71.79593
C         71.90965      -12.86991       71.68768
O         72.19425      -11.78075       71.20651
C         69.78440      -13.02250       70.38451
C         70.25203      -14.07104       69.35683
C         68.25530      -12.98538       70.45306
H         70.78121      -15.33725       71.75612
H         69.94896      -12.50624       72.49612
H         70.08149      -12.01814       70.00736
H         71.36029      -14.09433       69.28977
H         69.88826      -15.08430       69.62953
H         69.85143      -13.82525       68.35114
H         67.84105      -13.94502       70.81851
H         67.93105      -12.16580       71.13073
H         67.83996      -12.76957       69.44447
N         72.91135      -13.72692       72.04756
C         74.29342      -13.53195       71.61180
C         75.19950      -13.16515       72.77693
O         74.79595      -13.30665       73.92283
C         74.72430      -14.86632       70.95047
C         76.00785      -14.91187       70.16152
N         76.48421      -16.11019       69.76141
O         76.60968      -13.89784       69.85368
H         72.69328      -14.59871       72.55230
H         74.33374      -12.70527       70.86940
H         73.92395      -15.20310       70.25723
H         74.78801      -15.62429       71.76217
H         75.98557      -16.97996       70.00015
H         77.36351      -16.17271       69.23206
N         76.43644      -12.63553       72.54079
C         77.40303      -12.29506       73.57928
C         78.56764      -11.52277       72.96211
O         79.19278      -12.00480       72.02908
C         77.86426      -13.55984       74.35038
C         78.54706      -14.60472       73.49770
C         77.84243      -15.74562       73.07966
C         79.89670      -14.46344       73.13078
C         78.46850      -16.71173       72.28801
C         80.52110      -15.42987       72.34026
C         79.80918      -16.55473       71.91218
O         80.42119      -17.47842       71.14602
H         76.69161      -12.42198       71.57089
H         76.90088      -11.63091       74.31652
H         76.96686      -14.01377       74.81858
H         78.52865      -13.28605       75.19795
H         76.80458      -15.88278       73.35532
H         80.47017      -13.60576       73.46034
H         77.90987      -17.58072       71.96507
H         81.55944      -15.30079       72.06397
H         79.96428      -18.26888       70.82598
N         78.87022      -10.27509       73.40875
C         79.92844       -9.44415       72.83521
C         81.30607      -10.03631       73.13523
O         81.62368      -10.15586       74.31054
C         79.84924       -8.02611       73.44707
C         78.54676       -7.30708       73.05545
C         78.42539       -5.99462       73.77075
O         78.34937       -5.96688       75.11579
O         78.36940       -4.95116       73.14098
H         78.29831       -9.89224       74.17659
H         79.75695       -9.35115       71.74425
H         80.70426       -7.40803       73.09697
H         79.91758       -8.11271       74.55546
H         77.65545       -7.91124       73.32217
H         78.54091       -7.15073       71.95408
N         82.20235      -10.43971       72.17815
C         81.96322      -10.43786       70.73436
C         81.85034       -9.03142       70.16360
O         82.04870       -8.06173       70.88265
C         83.07448      -11.21071       69.96620
C         83.25434      -12.65182       70.47341
C         83.88632      -13.54565       69.44336
O         83.22101      -13.73924       68.28507
O         84.89385      -14.18691       69.69640
H         83.09564      -10.82619       72.51896
H         81.01216      -10.97950       70.54628
H         84.05365      -10.68283       70.00076
H         82.75438      -11.26005       68.90488
H         82.25678      -13.09506       70.66919
H         83.82744      -12.66163       71.42558
N         81.53564       -8.85248       68.84907
C         81.43182       -7.54209       68.24711
H         80.62761       -6.95939       68.74295
H         82.39866       -7.00352       68.34027
H         81.18647       -7.64211       67.16764
H         81.36262       -9.67025       68.24612
Ca        82.59441      -15.78436       67.49901
O         83.00010      -16.61029       70.18887
H         83.83925      -16.62252       70.71225
H         82.84762      -17.55445       69.93338
O         85.33209      -14.20475       65.81931
H         86.22441      -14.25808       66.24491
H         85.51223      -14.32085       64.85270
O         80.61617      -14.36219       68.90818
H         79.71580      -14.61302       69.22657
H         80.57671      -13.38284       68.76793
O         85.41261      -17.13530       67.47693
H         85.98101      -16.37538       67.75916
H         86.03063      -17.90781       67.44032
O         83.76765      -16.71911       64.61549
H         84.51444      -16.51119       64.00059
H         83.73509      -17.70839       64.63796

Ca 1.0



