%chk=apoCaM-CA-Ng.loop1.water3.frame1393.chk
%nprocshared=20
%mem=10GB
%nosave
#b3lyp/svp scf=(tight,noincore,xqc) Test 
#IOP(5/87=12) Density=Current Pop=(MK,readradii) iop(6/33=2) iop(6/42=6)

apoCaM-CA-Ng.loop1.water3.frame1393 

   0  1 
C         32.87814       95.41689       62.94030
C         31.81457       95.58169       61.90314
O         31.47494       94.61071       61.24005
H         33.73925       96.06728       62.68139
H         32.48024       95.70274       63.93537
H         33.22541       94.36185       62.97757
N         31.23742       96.79957       61.70140
C         30.26253       97.01231       60.64715
C         31.01192       97.23745       59.34659
O         31.72398       98.22118       59.20810
C         29.29573       98.16230       60.97898
C         28.53872       97.88350       62.25152
O         27.82366       96.89713       62.34171
O         28.64563       98.72346       63.29824
H         31.54040       97.60214       62.27423
H         29.61903       96.10514       60.56790
H         28.55736       98.27380       60.15377
H         29.85750       99.11468       61.08060
N         30.90325       96.30985       58.36395
C         31.60461       96.33708       57.08122
C         30.65343       96.60305       55.91835
O         30.93365       97.54256       55.18411
C         32.39840       95.02761       56.85249
C         33.51245       94.77720       57.87956
C         34.66492       95.78175       57.74363
C         35.81370       95.44068       58.69742
N         36.93451       96.35980       58.50308
H         30.30477       95.51623       58.59045
H         32.33196       97.17532       57.06217
H         32.85658       95.04236       55.83859
H         31.72402       94.15322       56.88034
H         33.92248       93.76274       57.67901
H         33.09748       94.78290       58.91050
H         34.31650       96.81180       57.96276
H         35.04618       95.74468       56.69919
H         36.16135       94.40091       58.50569
H         35.45494       95.50510       59.74882
H         36.63093       97.34388       58.68526
H         37.70222       96.11037       59.16699
H         37.29622       96.27930       57.52441
N         29.50842       95.90964       55.64709
C         28.91238       94.87022       56.47890
C         27.85519       95.52142       57.36837
O         27.68035       96.72781       57.28628
C         28.42521       93.70936       55.61333
C         27.30868       94.10350       54.72016
O         26.15277       94.53322       55.25328
O         27.44287       94.04907       53.50940
H         28.93321       96.25804       54.86331
H         29.64953       94.37811       57.10925
H         28.07582       92.88610       56.25723
H         29.28691       93.33846       55.01524
N         27.12123       94.79102       58.25432
C         26.14821       95.40785       59.14930
C         24.73964       95.02385       58.77846
O         24.53876       94.29501       57.82734
H         27.24826       93.77283       58.29864
H         26.20212       96.51515       59.11127
H         26.37180       95.09810       60.19233
N         23.69408       95.53900       59.48333
C         22.29943       95.20120       59.19630
C         21.63185       94.68723       60.46653
O         22.18977       94.88215       61.53530
C         21.58236       96.46680       58.68497
C         22.23020       96.99765       57.43712
O         22.28399       96.31006       56.43032
O         22.75445       98.23811       57.42666
H         23.89538       96.20957       60.23911
H         22.24824       94.41115       58.41975
H         21.61778       97.25219       59.47201
H         20.51997       96.26325       58.45712
N         20.43255       94.03255       60.48336
C         19.67107       93.57554       59.33487
C         20.37715       92.44671       58.62067
O         20.79734       91.50248       59.27627
H         20.04097       93.79324       61.40858
H         19.39022       94.40570       58.65770
H         18.71982       93.14392       59.71505
N         20.47941       92.44017       57.26481
C         21.07402       91.33398       56.52053
C         22.58053       91.48989       56.47231
O         23.05037       92.57788       56.17998
C         20.49587       91.25237       55.08680
C         18.98763       90.98268       55.10552
O         21.10705       90.19660       54.38502
H         20.04931       93.21675       56.73759
H         20.80312       90.36173       56.99251
H         20.65350       92.21607       54.55502
H         21.89586       90.56879       53.91192
H         18.43981       91.79769       55.62136
H         18.60703       90.91010       54.06453
H         18.77353       90.02221       55.62338
N         23.38312       90.40425       56.68446
C         24.84565       90.35390       56.60054
C         25.33960       90.80980       55.22783
O         25.15520       91.97271       54.90819
C         25.55997       91.20112       57.69914
C         24.87093       91.20131       59.08671
C         27.03916       90.78105       57.81501
C         24.78821       89.84092       59.77201
H         22.91772       89.50698       56.89090
H         25.12740       89.29041       56.77000
H         25.54398       92.25254       57.37012
H         23.84184       91.60674       58.98201
H         25.42106       91.89948       59.75688
H         27.54688       90.83711       56.83274
H         27.57807       91.43629       58.53118
H         27.13099       89.73128       58.15842
H         24.26634       89.96133       60.74501
H         24.21689       89.12353       59.14963
H         25.80000       89.43806       59.97808
N         26.00829       89.98128       54.37578
C         26.57423       90.47776       53.11651
C         25.90404       89.90779       51.88808
O         26.27634       90.34109       50.80481
C         28.10531       90.26478       53.06431
C         28.51871       88.78960       53.04369
O         28.69897       90.90153       54.16371
H         26.13732       88.99345       54.63640
H         26.41382       91.57400       53.03104
H         28.46836       90.73828       52.11898
H         29.60612       91.18721       53.87770
H         28.20920       88.27445       53.97508
H         28.07107       88.26976       52.17056
H         29.62347       88.71952       52.95703
N         24.92129       88.96178       51.93884
C         24.28563       88.48054       50.71665
C         23.53266       89.63772       50.07095
O         22.48826       90.02120       50.57679
C         23.36999       87.25697       50.98192
C         24.19096       86.05260       51.47276
O         22.38792       87.58502       51.93282
H         24.62882       88.57679       52.84874
H         25.08937       88.13923       50.02551
H         22.88248       86.97693       50.01961
H         21.73499       86.83693       51.94596
H         24.70199       86.27438       52.43297
H         23.52722       85.17570       51.62742
H         24.95644       85.77687       50.71645
N         24.07133       90.28844       48.99285
C         23.50980       91.47008       48.33443
C         23.37816       92.67114       49.25282
O         22.84175       92.55318       50.34185
C         22.17005       91.19000       47.64823
C         22.32774       90.10190       46.58390
C         21.05871       89.96777       45.74503
C         21.23848       88.87960       44.68224
N         20.04771       88.76879       43.84371
H         24.96601       89.94055       48.61545
H         24.20663       91.76320       47.51598
H         21.85635       92.13239       47.14279
H         21.38387       90.91133       48.38148
H         22.56809       89.13527       47.07781
H         23.16500       90.37354       45.90210
H         20.85345       90.93946       45.24188
H         20.19824       89.71494       46.40152
H         21.43229       87.90495       45.18298
H         22.11453       89.12571       44.04050
H         20.19905       88.01329       43.13737
H         19.21665       88.52715       44.43059
H         19.87822       89.67184       43.34355
N         23.77100       93.90278       48.82236
C         23.61980       95.09769       49.63881
C         24.42290       94.99571       50.94921
O         24.13593       96.07878       51.77814
C         23.92190       96.38864       48.84426
C         22.81447       96.68287       47.82221
C         23.09259       97.91974       47.01158
O         24.22904       98.62581       47.17922
O         22.27657       98.28889       46.18314
H         24.15501       93.99797       47.86983
H         22.55762       95.17463       49.96560
H         24.89329       96.31242       48.32408
H         23.95658       97.25613       49.54021
H         21.85761       96.83244       48.37132
H         22.69545       95.82471       47.12886
N         25.86478       94.67196       50.97960
C         26.61969       94.63208       49.72765
H         27.66753       94.34133       49.95479
H         26.22698       93.86390       49.03420
H         26.67697       95.63352       49.26685
H         25.95063       93.73513       51.43513
Ca        24.66967       95.26170       53.78924
O         25.11255       97.86938       54.78504
H         24.30111       98.15116       55.27560
H         25.82102       97.82702       55.47458
O         22.63880       93.18541       53.21369
H         23.34810       92.52620       53.00964
H         21.86510       92.89951       52.66646
O         21.44978       95.87931       53.52006
H         21.25448       96.05231       52.56512
H         21.17967       96.71100       53.98375

Ca 1.0



