%chk=apoCaM-CA-Ng.loop1.water3.frame1324.chk
%nprocshared=20
%mem=10GB
%nosave
#b3lyp/svp scf=(tight,noincore,xqc) Test 
#IOP(5/87=12) Density=Current Pop=(MK,readradii) iop(6/33=2) iop(6/42=6)

apoCaM-CA-Ng.loop1.water3.frame1324 

   0  1 
C         37.76481       37.02314      105.80611
C         38.80143       37.25441      106.86532
O         39.24863       38.38368      107.00804
H         36.87796       37.65867      106.00627
H         38.18841       37.29016      104.81410
H         37.44531       35.96051      105.77453
N         39.25876       36.21836      107.62643
C         40.32856       36.36170      108.60846
C         41.54356       35.61017      108.10672
O         42.10406       34.76735      108.79404
C         39.86480       35.96107      110.02738
C         39.38862       34.53693      110.15647
O         40.02993       33.68705      110.98059
O         38.39791       34.15426      109.55526
H         38.88048       35.27685      107.44897
H         40.64704       37.42412      108.67506
H         39.04060       36.63624      110.34279
H         40.71581       36.12103      110.72561
N         41.99594       35.90438      106.85981
C         43.17178       35.31069      106.24365
C         44.43133       35.69779      107.01472
O         45.14914       34.78726      107.40196
C         43.26550       35.67472      104.73765
C         42.00191       35.20666      103.98204
C         42.06604       35.49013      102.47917
C         40.73791       35.09120      101.81349
N         40.76978       35.33537      100.37316
H         41.46112       36.59990      106.32069
H         43.06510       34.20161      106.26662
H         44.15283       35.16264      104.30435
H         43.39641       36.76492      104.58623
H         41.10979       35.73086      104.38091
H         41.86082       34.11420      104.13593
H         42.90503       34.91534      102.03016
H         42.24087       36.57529      102.31140
H         39.90919       35.68406      102.26372
H         40.53243       34.01294      101.99718
H         41.51116       34.74784       99.92775
H         39.84205       35.07783       99.96448
H         40.95382       36.34701      100.18258
N         44.78214       36.98296      107.34248
C         44.01545       38.19051      107.03889
C         43.43199       38.80648      108.30411
O         43.73155       38.36487      109.40603
C         44.85553       39.18484      106.21743
C         46.15647       39.53466      106.87245
O         46.18059       40.11040      108.08866
O         47.20296       39.28485      106.29777
H         45.64242       37.10534      107.90090
H         43.14629       37.96123      106.41482
H         44.27737       40.11432      106.03366
H         45.07254       38.72407      105.22862
N         42.49340       39.78719      108.18589
C         41.74683       40.35452      109.29773
C         42.56351       41.24968      110.19584
O         43.75927       41.38497      110.00202
H         42.22026       40.09180      107.23923
H         41.26723       39.54512      109.88958
H         40.94060       40.99092      108.87392
N         41.92125       41.94382      111.18361
C         42.56324       42.91754      112.08084
C         41.50985       43.91698      112.63117
O         40.32778       43.69693      112.41303
C         43.28417       42.15879      113.22647
C         44.39762       41.27839      112.73182
O         45.46795       41.81161      112.09880
O         44.32351       40.07094      112.88374
H         40.90173       41.80819      111.23563
H         43.27853       43.51218      111.47980
H         42.52605       41.54795      113.76639
H         43.73887       42.82925      113.96487
N         41.80783       45.06776      113.31974
C         43.13176       45.56498      113.64328
C         43.94148       45.89588      112.42052
O         43.38974       46.04017      111.34000
H         41.01703       45.65349      113.63335
H         43.66349       44.84996      114.28627
H         43.05615       46.49415      114.24903
N         45.28792       46.01932      112.53265
C         46.16873       46.30687      111.40821
C         46.02182       45.25954      110.30978
O         46.11410       44.07474      110.58846
C         47.63888       46.40483      111.89032
C         48.56018       46.90641      110.77746
O         48.11673       45.16313      112.34316
H         45.69808       45.89462      113.47088
H         45.89522       47.30853      111.00754
H         47.70320       47.15930      112.70898
H         47.72834       44.99701      113.23920
H         48.21449       47.89247      110.39948
H         49.58470       47.02879      111.18293
H         48.58995       46.18713      109.93259
N         45.84005       45.66143      109.02042
C         45.73804       44.79509      107.84983
C         46.93834       43.87024      107.73514
O         46.92413       42.80474      108.33538
C         44.40551       43.98577      107.78236
C         43.14359       44.83520      108.05875
C         44.27590       43.24610      106.43355
C         42.93735       46.02797      107.12607
H         45.82127       46.67562      108.83427
H         45.74139       45.47193      106.96649
H         44.42642       43.21981      108.57931
H         43.19915       45.21904      109.09109
H         42.24806       44.17682      108.00688
H         44.26057       43.96096      105.58471
H         45.12557       42.55025      106.27478
H         43.34321       42.64304      106.41079
H         42.01027       46.56104      107.42513
H         43.78188       46.74199      107.20931
H         42.82614       45.70157      106.07322
N         47.98182       44.18252      106.92056
C         49.05446       43.24042      106.61803
C         50.42654       43.69563      107.08777
O         51.36648       42.95858      106.83357
C         49.03969       42.91646      105.10060
C         49.32388       44.13064      104.20931
O         47.78894       42.39001      104.74161
H         47.98412       45.10300      106.45848
H         48.88243       42.27289      107.14033
H         49.83024       42.16150      104.87858
H         47.74518       41.47522      105.12076
H         48.54065       44.90784      104.32128
H         50.31388       44.57190      104.44691
H         49.32635       43.81265      103.14540
N         50.63971       44.85558      107.78229
C         51.97291       45.24953      108.24939
C         52.45897       44.23222      109.28608
O         52.05093       44.31505      110.43466
C         51.93740       46.69561      108.81285
C         53.32089       47.22581      109.19365
O         51.38392       47.55213      107.84404
H         49.84157       45.47711      107.97354
H         52.64904       45.25274      107.36498
H         51.29777       46.69001      109.72323
H         50.81713       48.21358      108.32225
H         53.78939       46.59533      109.97671
H         53.98001       47.25583      108.30024
H         53.22115       48.25970      109.59107
N         53.23229       43.17286      108.89531
C         53.59472       42.00986      109.71156
C         52.37182       41.26144      110.23870
O         51.55042       41.85422      110.91922
C         54.54882       42.31299      110.87661
C         55.81519       43.07229      110.45582
C         56.91241       42.87455      111.51791
C         58.14161       43.76968      111.31227
N         57.85627       45.15855      111.67781
H         53.54328       43.14405      107.91278
H         54.16553       41.31743      109.05072
H         54.84305       41.31482      111.27669
H         54.05035       42.87323      111.69681
H         55.53547       44.13670      110.31357
H         56.21719       42.68305      109.49367
H         57.23626       41.81075      111.45127
H         56.52019       43.04565      112.54306
H         58.50785       43.70378      110.26346
H         58.95131       43.39901      111.97965
H         57.11912       45.56758      111.06261
H         57.54384       45.20151      112.67626
H         58.72938       45.72474      111.58277
N         52.23098       39.92109      110.04099
C         51.09386       39.17065      110.57420
C         49.78148       39.49685      109.80895
O         48.71465       38.98378      110.56167
C         51.37137       37.64983      110.57178
C         52.50607       37.27779      111.53537
C         52.80062       35.80854      111.46388
O         52.63784       35.03096      112.55083
O         53.19984       35.31354      110.42155
H         52.99126       39.41562      109.56183
H         50.94716       39.46900      111.63750
H         51.61897       37.31766      109.54127
H         50.46020       37.10311      110.90230
H         52.19927       37.54659      112.57080
H         53.43425       37.83420      111.28965
N         49.71277       38.86209      108.48083
C         50.72225       39.28880      107.51244
H         51.72258       38.90711      107.78572
H         50.49223       38.82401      106.52910
H         50.73138       40.39091      107.39754
H         48.78316       39.11221      108.08573
Ca        47.04995       40.48168      111.12474
O         48.85764       41.41265      113.36784
H         49.35033       41.27116      112.52118
H         48.45883       40.52928      113.57081
O         46.69182       37.79030      112.40245
H         46.19813       38.44513      112.95399
H         47.63749       37.93115      112.65746
O         48.85494       43.10258      110.26728
H         49.42429       43.34311      111.03835
H         49.44338       42.58109      109.66693

Ca 1.0



