%chk=apoCaM-CA-Ng.loop3.water4.frame46.chk
%nprocshared=20
%mem=10GB
%nosave
#b3lyp/svp scf=(tight,noincore,xqc) Test 
#IOP(5/87=12) Density=Current Pop=(MK,readradii) iop(6/33=2) iop(6/42=6)

apoCaM-CA-Ng.loop3.water4.frame46 

   0  1 
C         32.09465       64.16489       38.71219
C         32.15349       64.44291       37.24401
O         31.75794       63.58339       36.47242
H         31.45281       64.91867       39.21155
H         31.68035       63.15113       38.90174
H         33.12184       64.21327       39.13062
N         32.62245       65.64755       36.80044
C         32.80341       66.04823       35.40622
C         34.07488       65.47734       34.80941
O         34.87367       66.25979       34.31020
C         31.59083       65.74956       34.49278
C         30.32568       66.37039       35.00778
O         30.24473       67.70422       35.17408
O         29.35823       65.67048       35.25998
H         32.86421       66.35431       37.51177
H         32.93344       67.15578       35.39356
H         31.44911       64.65799       34.35902
H         31.79242       66.16775       33.48121
N         34.30748       64.13476       34.75811
C         35.39555       63.54826       33.99511
C         34.83617       62.81714       32.79231
O         35.62154       62.42560       31.94133
C         36.22212       62.55409       34.84106
C         36.71544       63.09402       36.18850
C         37.54099       64.37610       36.06595
C         38.04895       64.81783       37.44234
N         38.70960       66.11830       37.35871
H         33.65361       63.48878       35.20507
H         36.06116       64.34829       33.60475
H         37.09340       62.21271       34.23897
H         35.59711       61.66049       35.06714
H         37.32794       62.29792       36.66736
H         35.83804       63.29216       36.84264
H         36.89783       65.17848       35.65238
H         38.40403       64.21727       35.38315
H         38.76095       64.05632       37.83287
H         37.19469       64.89582       38.15169
H         38.01873       66.84405       37.05674
H         39.07610       66.37625       38.30298
H         39.50283       66.08113       36.67868
N         33.49634       62.54812       32.67635
C         32.93902       61.80263       31.57084
C         31.71503       62.51740       31.00574
O         31.25759       63.49556       31.58073
C         32.57417       60.41381       32.10652
C         32.38185       59.43784       31.00441
O         33.32142       59.13785       30.28459
O         31.19851       58.84728       30.82334
H         32.83580       62.79226       33.42243
H         33.70754       61.69917       30.77486
H         31.67631       60.48079       32.76180
H         33.40940       60.01214       32.72374
N         31.14136       62.07958       29.85401
C         29.99000       62.71612       29.23865
C         28.65484       62.25685       29.79427
O         27.64972       62.63147       29.20712
H         31.59393       61.31354       29.33888
H         29.97894       62.40169       28.17247
H         30.09455       63.82253       29.24869
N         28.54597       61.40937       30.86123
C         27.28377       60.77937       31.24995
C         26.80306       61.21136       32.63163
O         25.80910       60.66873       33.09640
C         27.44220       59.24543       31.15774
C         27.82680       58.80606       29.75853
N         27.00705       58.01820       29.02559
O         28.89157       59.16548       29.27976
H         29.38970       61.12824       31.38137
H         26.46430       61.05462       30.54918
H         26.47587       58.77038       31.43520
H         28.21451       58.89336       31.87572
H         26.10031       57.70214       29.39651
H         27.27887       57.72928       28.07407
N         27.38510       62.24201       33.30776
C         26.85975       62.75831       34.56055
C         27.12241       61.83833       35.72610
O         28.28136       61.55432       35.99204
H         28.17466       62.75060       32.88529
H         25.77801       62.99388       34.44797
H         27.37776       63.71250       34.79476
N         26.09549       61.39545       36.51405
C         26.27413       60.65651       37.76724
C         26.91505       59.28945       37.52765
O         27.17594       58.95244       36.37975
C         27.04935       61.56401       38.76508
C         26.94049       61.16141       40.21638
C         25.68417       61.12842       40.84816
C         28.08856       60.84839       40.96264
C         25.57797       60.78002       42.19707
C         27.97924       60.49725       42.31287
C         26.72225       60.46200       42.93403
O         26.60187       60.12906       44.23506
H         25.13033       61.65200       36.25470
H         25.26038       60.47734       38.18663
H         26.61677       62.58736       38.71280
H         28.11253       61.63798       38.45426
H         24.78512       61.38047       40.30028
H         29.06783       60.87174       40.50112
H         24.60419       60.76158       42.67062
H         28.87203       60.25358       42.87466
H         27.36768       59.90484       44.78258
N         27.19158       58.43382       38.55714
C         27.77002       57.11328       38.32457
C         26.71307       56.25509       37.65897
O         26.94136       55.76824       36.56123
C         28.28651       56.43071       39.63333
C         29.23747       57.32821       40.47137
C         28.99804       55.09802       39.30640
C         30.48658       57.82708       39.73790
H         26.97983       58.71912       39.51951
H         28.65603       57.22427       37.65962
H         27.41676       56.20160       40.28795
H         29.55790       56.76603       41.37579
H         28.68354       58.21011       40.83576
H         29.88725       55.25931       38.66447
H         29.31764       54.59257       40.24264
H         28.34275       54.40140       38.75608
H         30.20948       58.45305       38.86499
H         31.08715       58.45472       40.42917
H         31.12548       56.98539       39.40397
N         25.50308       56.06832       38.26747
C         24.43416       55.27593       37.67056
C         24.76911       53.79690       37.64042
O         24.10776       53.07717       36.90532
C         23.10830       55.46698       38.42834
O         22.67576       56.79905       38.34553
H         25.33062       56.54231       39.16699
H         24.28546       55.63335       36.62672
H         23.20579       55.14673       39.49242
H         22.31866       54.82970       37.97500
H         23.14932       57.30649       39.05380
N         25.76101       53.26402       38.41890
C         26.12728       51.85224       38.42079
C         26.64248       51.38319       37.06643
O         26.78511       50.18039       36.89163
C         24.94770       50.99423       38.90992
H         26.26959       53.87470       39.06906
H         26.94642       51.68972       39.15660
H         24.62629       51.34037       39.91532
H         24.08028       51.03631       38.22237
H         25.25946       49.93155       39.00046
N         26.98500       52.26298       36.07493
C         27.41446       51.83333       34.75202
C         28.86207       52.17432       34.49303
O         29.45295       52.96280       35.21914
C         26.52809       52.49062       33.69159
H         26.95442       53.27467       36.25345
H         27.32149       50.72995       34.66361
H         26.82022       52.16300       32.67194
H         25.46537       52.22143       33.86459
H         26.62478       53.59836       33.74795
N         29.51201       51.53210       33.47901
C         30.91250       51.72624       33.12875
C         31.78190       51.53399       34.35619
O         32.57185       52.40528       34.69504
C         31.10172       53.08366       32.42195
C         30.20037       53.15259       31.17479
C         30.30173       54.47807       30.50876
O         31.45580       54.88385       29.96054
O         29.33100       55.21870       30.47729
H         28.99262       50.82424       32.93742
H         31.19574       50.94077       32.39258
H         32.16626       53.20712       32.12015
H         30.83798       53.91049       33.11853
H         29.14225       53.01062       31.48139
H         30.47080       52.35816       30.44752
N         31.63377       50.40243       35.10030
C         32.35818       50.14453       36.32634
H         33.08127       50.95055       36.56938
H         31.63269       50.06199       37.16365
H         32.90879       49.18637       36.23255
H         30.94290       49.69632       34.80349
Ca        31.34293       57.05377       29.53135
O         34.26277       56.66642       28.57208
H         34.99507       57.07356       28.04478
H         34.65887       56.50340       29.46488
O         31.75062       59.61061       27.30095
H         32.47434       60.28162       27.22257
H         30.92095       60.11967       27.11872
O         29.72323       57.30871       26.72248
H         29.35644       58.21273       26.55556
H         29.16862       56.70932       26.16305
O         31.71984       55.12127       27.03689
H         32.51764       55.22476       26.46046
H         31.75143       54.17968       27.34114

Ca 1.0



