%chk=apoCaM-CA-Ng.loop2.water4.frame679.chk
%nprocshared=20
%mem=10GB
%nosave
#b3lyp/svp scf=(tight,noincore,xqc) Test 
#IOP(5/87=12) Density=Current Pop=(MK,readradii) iop(6/33=2) iop(6/42=6)

apoCaM-CA-Ng.loop2.water4.frame679 

   -2  1 
C         84.17242       63.32926       69.55653
C         82.97847       63.40187       68.65248
O         83.05901       64.01927       67.60015
H         85.03680       63.86918       69.11493
H         83.92423       63.78415       70.53767
H         84.45861       62.26651       69.70951
N         81.83281       62.75405       68.99843
C         80.63808       62.71918       68.16827
C         80.49607       61.30343       67.65217
O         79.55810       60.59620       67.99460
C         79.43077       63.22285       68.98515
C         78.17475       63.28238       68.15821
O         78.12531       63.98826       67.16304
O         77.09303       62.56669       68.51996
H         81.82138       62.21394       69.87841
H         80.74283       63.38529       67.28258
H         79.64646       64.24914       69.35407
H         79.27111       62.56445       69.86686
N         81.45003       60.83663       66.80099
C         81.49477       59.48314       66.26828
C         82.84995       58.85852       66.59499
O         83.75144       59.59348       66.97682
C         81.29602       59.58812       64.74677
H         82.19190       61.49026       66.50239
H         80.68632       58.86606       66.71582
H         82.08763       60.22915       64.30174
H         81.32571       58.61929       64.22036
H         80.31009       60.05374       64.53454
N         83.12607       57.52858       66.45656
C         82.14781       56.49563       66.13124
C         81.35984       56.04808       67.35355
O         81.68619       56.41715       68.47268
C         82.83758       55.26510       65.48647
C         83.71566       54.47935       66.43175
O         83.39592       53.20514       66.72744
O         84.71763       54.97380       66.92235
H         84.10114       57.24515       66.62404
H         81.44592       56.87977       65.37626
H         83.43179       55.58460       64.60404
H         82.04883       54.57580       65.11655
N         80.32502       55.18104       67.18495
C         79.63414       54.49641       68.26078
C         78.93087       55.42205       69.23661
O         78.29857       56.35922       68.77151
H         80.04746       54.92860       66.22461
H         80.36186       53.82087       68.73230
H         78.85140       53.85994       67.79712
N         78.89013       55.21574       70.59302
C         79.49831       54.10124       71.32681
C         80.48058       54.62517       72.36103
O         80.36566       55.77261       72.77202
C         78.39936       53.23601       71.99364
C         77.47421       52.54878       71.00480
N         76.47758       51.74924       71.45001
O         77.62231       52.69664       69.80156
H         78.34397       55.89006       71.15386
H         80.06778       53.42135       70.67977
H         77.78862       53.87015       72.67359
H         78.88109       52.43865       72.59975
H         76.33077       51.59937       72.45825
H         75.85186       51.27369       70.78143
N         81.47169       53.81568       72.84267
C         82.41108       54.25516       73.86912
C         83.82951       53.70507       73.74897
O         84.62623       54.04163       74.61362
H         81.48200       52.83283       72.53591
H         82.01229       53.92400       74.85066
H         82.47401       55.36527       73.88981
N         84.22811       52.83970       72.76790
C         85.57493       52.26427       72.72015
C         86.62561       53.33675       72.46032
O         86.59418       53.98619       71.42582
C         85.63979       51.13378       71.66552
C         87.06177       50.57171       71.49855
O         84.77326       50.10468       72.07274
H         83.55162       52.53664       72.05604
H         85.78322       51.78002       73.70178
H         85.29677       51.53991       70.69067
H         84.71151       49.45752       71.32309
H         87.75194       51.35550       71.11960
H         87.44800       50.18363       72.46423
H         87.05638       49.74886       70.75306
N         87.59687       53.55753       73.38877
C         88.64629       54.56405       73.26411
C         89.76698       54.06484       72.35165
O         90.37367       53.04361       72.64035
C         89.17251       54.93312       74.69110
C         90.39511       55.88796       74.65008
C         88.01723       55.57017       75.49952
C         90.98762       56.17137       76.03557
H         87.55835       53.00759       74.26084
H         88.21336       55.50164       72.84897
H         89.49977       53.99625       75.19467
H         90.12165       56.84712       74.16202
H         91.20587       55.41163       74.06049
H         87.69765       56.52529       75.02701
H         87.13688       54.89893       75.54861
H         88.30795       55.77109       76.54798
H         90.27894       56.72577       76.68137
H         91.27403       55.21928       76.53095
H         91.89587       56.79882       75.93996
N         90.14141       54.81635       71.27702
C         91.30335       54.56992       70.42761
C         92.38310       55.61986       70.67277
O         93.44227       55.49430       70.07046
C         90.88588       54.64753       68.94797
C         89.96088       53.54232       68.54830
O         88.66351       53.80057       68.30441
O         90.38341       52.40305       68.43153
H         89.61604       55.67115       71.09002
H         91.76043       53.58171       70.65614
H         91.76734       54.60744       68.26969
H         90.39222       55.63007       68.78123
N         92.21681       56.65665       71.54960
C         93.26706       57.61473       71.86818
C         92.75781       59.03704       71.63443
O         92.75609       59.82173       72.57761
C         93.65733       57.35998       73.34419
C         94.87176       58.07068       73.90016
C         95.18587       57.84571       75.25237
C         95.70421       58.91652       73.14014
C         96.30300       58.44747       75.83461
C         96.82396       59.51479       73.72813
C         97.12328       59.28023       75.07254
H         91.33409       56.76060       72.06648
H         94.16155       57.43405       71.23529
H         93.85630       56.27179       73.46184
H         92.77794       57.61464       73.97344
H         94.56225       57.19806       75.85771
H         95.50740       59.11543       72.09675
H         96.53343       58.26380       76.87626
H         97.46360       60.15868       73.13908
H         97.99167       59.74181       75.52393
N         92.28744       59.46702       70.42053
C         91.79480       60.81724       70.16974
C         90.63166       61.26327       71.05236
O         90.27423       62.43028       70.99509
C         91.32718       60.76865       68.70981
C         92.27139       59.74911       68.11263
C         92.30898       58.68188       69.20384
H         92.66095       61.50274       70.30943
H         90.31171       60.30830       68.66429
H         91.29051       61.75494       68.19980
H         91.98977       59.37070       67.10702
H         93.27732       60.22404       68.05026
H         91.40323       58.03656       69.18229
H         93.23402       58.08180       69.07938
N         89.97238       60.38594       71.86449
C         88.91266       60.78339       72.77681
C         89.55973       61.53755       73.91836
O         89.20980       62.68584       74.15352
C         88.12172       59.57279       73.35039
C         87.12732       58.87309       72.38668
C         87.69305       57.98311       71.31152
O         86.85989       57.27195       70.53106
O         88.88715       57.83830       71.16728
H         90.27083       59.41217       71.87933
H         88.17141       61.43000       72.25499
H         87.47361       59.99035       74.15377
H         88.79281       58.82901       73.82940
H         86.46315       59.63322       71.92338
H         86.49511       58.20732       73.01413
N         90.53753       60.93870       74.65799
C         91.22924       61.58019       75.75520
H         92.31240       61.64104       75.51734
H         90.85172       62.60482       75.95204
H         91.09946       60.97123       76.67408
H         90.82448       59.97557       74.42541
Ca        87.68809       55.65444       69.16991
O         84.10021       54.50466       69.91959
H         83.61292       53.65928       69.75299
H         83.39431       55.15302       70.16479
O         87.36022       58.02001       67.44889
H         87.25850       57.80986       66.48690
H         88.33880       58.02074       67.60256
O         86.29221       52.49899       68.61793
H         86.78778       51.66259       68.43172
H         85.58414       52.52520       67.93005
O         84.51244       57.68079       69.19726
H         84.89267       58.59331       69.25358
H         83.70124       57.71501       69.76195

Ca 1.0



