%chk=apoCaM-CA-Ng.loop3.water3.frame726.chk
%nprocshared=20
%mem=10GB
%nosave
#b3lyp/svp scf=(tight,noincore,xqc) Test 
#IOP(5/87=12) Density=Current Pop=(MK,readradii) iop(6/33=2) iop(6/42=6)

apoCaM-CA-Ng.loop3.water3.frame726 

   0  1 
C         77.31304       71.45003       79.70576
C         77.45601       70.31117       78.73956
O         76.53751       70.04935       77.97579
H         76.32086       71.93788       79.60108
H         77.42841       71.07999       80.74538
H         78.10134       72.20645       79.50111
N         78.61784       69.60458       78.69988
C         78.87052       68.54560       77.73035
C         77.94015       67.35947       77.96130
O         77.99970       66.75552       79.02352
C         80.35978       68.14116       77.80011
C         80.82713       67.28314       76.66166
O         82.12316       66.92414       76.59492
O         80.06320       66.93732       75.77672
H         79.37239       69.88282       79.34801
H         78.69871       68.97365       76.72499
H         80.57666       67.64178       78.76902
H         80.96562       69.06651       77.74660
N         77.02838       66.99257       77.01040
C         76.06349       65.90555       77.20349
C         76.70794       64.52438       77.27281
O         76.02016       63.58229       77.64138
C         75.03013       65.85593       76.05540
C         74.19015       67.13222       75.92142
C         73.13401       66.94975       74.81979
C         72.26621       68.19676       74.59128
N         71.50100       68.57089       75.78203
H         76.98888       67.54659       76.14444
H         75.52595       66.09751       78.15903
H         74.33004       65.01290       76.25138
H         75.55477       65.65569       75.09369
H         74.83539       67.99920       75.66685
H         73.69206       67.32473       76.89400
H         72.47453       66.09172       75.07745
H         73.64859       66.71371       73.86193
H         71.55660       67.96940       73.76460
H         72.90401       69.04985       74.27107
H         70.85493       69.35499       75.53655
H         70.93484       67.75907       76.12018
H         72.13861       68.90410       76.53941
N         77.98849       64.31356       76.86674
C         78.64016       63.00880       76.84293
C         79.82955       63.02313       77.78944
O         79.87140       62.18719       78.68223
C         78.94298       62.58365       75.38162
C         79.52758       63.64159       74.47858
O         80.74117       64.16892       74.69463
O         78.88302       64.02841       73.51652
H         78.52968       65.11303       76.51966
H         77.96315       62.21123       77.22645
H         77.96106       62.31133       74.93129
H         79.57085       61.66753       75.37023
N         80.78282       63.99030       77.71671
C         81.85269       64.15483       78.68462
C         83.22986       64.16950       78.05892
O         84.17140       64.45251       78.78501
H         80.70765       64.70415       76.99000
H         81.82884       63.37210       79.47438
H         81.69425       65.13582       79.18141
N         83.44601       63.83982       76.74939
C         84.77952       63.79118       76.15236
C         84.84569       64.53879       74.82515
O         83.83887       65.02312       74.33496
C         85.15340       62.31371       75.92536
C         85.22689       61.56414       77.23216
N         84.39701       60.52616       77.48537
O         86.04878       61.89975       78.07227
H         82.65611       63.52456       76.17186
H         85.53206       64.25052       76.83085
H         86.14476       62.22587       75.43474
H         84.39718       61.85269       75.25177
H         83.69329       60.22936       76.79413
H         84.45541       60.01953       78.38114
N         86.04339       64.63831       74.18011
C         86.24447       65.21490       72.85832
C         85.87393       66.67175       72.77560
O         86.21886       67.42390       73.67718
H         86.87873       64.25005       74.64297
H         85.69688       64.62552       72.09214
H         87.32827       65.14259       72.62337
N         85.24225       67.16308       71.66549
C         84.90848       68.57763       71.53222
C         83.82199       68.96698       72.51995
O         83.31433       68.11303       73.23272
C         84.54713       68.95480       70.07226
C         85.72468       68.80231       69.12364
C         86.93107       69.49130       69.36550
C         85.62546       67.99980       67.97329
C         88.01291       69.36690       68.48999
C         86.70833       67.88700       67.09059
C         87.90493       68.56538       67.34724
O         88.93958       68.44407       66.49012
H         85.04430       66.52486       70.87937
H         85.80399       69.17060       71.81171
H         84.25859       70.02545       70.02939
H         83.67133       68.35896       69.73342
H         87.04432       70.12919       70.23142
H         84.70842       67.47024       67.74996
H         88.93304       69.89913       68.69928
H         86.61751       67.27329       66.20310
H         89.78330       68.89743       66.63342
N         83.49058       70.28036       72.67535
C         82.67198       70.79841       73.76545
C         81.24788       70.27090       73.70387
O         80.95290       69.26158       74.32732
C         83.35909       70.52961       75.14557
C         82.59169       71.25025       76.28311
C         84.83839       70.97089       75.10339
C         83.15445       70.96138       77.67658
H         83.92862       70.97828       72.05557
H         82.62613       71.90464       73.64352
H         83.34785       69.43693       75.35093
H         81.53415       70.91321       76.28237
H         82.59899       72.34820       76.10932
H         85.39323       70.42945       74.30907
H         84.91846       72.06111       74.91181
H         85.36172       70.72027       76.04624
H         82.51675       71.45467       78.43918
H         83.16680       69.86833       77.87075
H         84.18087       71.36162       77.79252
N         80.30382       70.91170       72.96086
C         78.91738       70.46178       72.91027
C         78.24282       71.04429       71.69109
O         77.26764       71.77612       71.80114
C         78.19189       70.80926       74.22565
O         76.91354       70.22621       74.25689
H         80.59029       71.72623       72.39521
H         78.90071       69.36106       72.76836
H         78.14182       71.91390       74.37118
H         78.76172       70.41792       75.08546
H         76.25432       70.93594       74.04283
N         78.73812       70.72230       70.46557
C         78.17784       71.20333       69.21483
C         77.64580       70.03736       68.39801
O         77.90130       68.89789       68.76555
C         79.28600       71.93722       68.45441
H         79.55266       70.08969       70.41671
H         77.33200       71.89139       69.42370
H         79.63311       72.81032       69.04750
H         80.15016       71.25898       68.28626
H         78.94716       72.28487       67.46481
N         76.86502       70.19636       67.28951
C         76.36563       71.46473       66.76452
C         76.79460       71.64032       65.31825
O         76.86717       70.64527       64.61061
C         74.83755       71.45607       66.84584
H         76.55302       69.33764       66.80741
H         76.70329       72.32451       67.36658
H         74.41561       70.61598       66.25347
H         74.52036       71.33955       67.90452
H         74.41964       72.40977       66.45987
N         77.04261       72.85711       64.75059
C         76.91542       74.14776       65.42015
C         78.20936       74.49714       66.11764
O         78.19152       74.73828       67.31695
C         76.54631       75.24679       64.40201
C         75.17529       74.97881       63.76095
C         74.82935       76.04707       62.76553
O         74.72100       77.33059       63.15877
O         74.63504       75.75593       61.59607
H         77.28407       72.86352       63.74633
H         76.08440       74.12940       66.15881
H         77.32343       75.30894       63.60869
H         76.50528       76.22663       64.92865
H         74.39121       74.95611       64.54875
H         75.18367       73.99213       63.24906
N         79.38085       74.53984       65.42476
C         80.64103       74.85784       66.05946
H         81.46050       74.82264       65.31029
H         80.60020       75.87780       66.49639
H         80.86135       74.11899       66.85904
H         79.38358       74.32907       64.41552
Ca        81.36455       65.89790       73.38186
O         79.88526       67.33131       71.31221
H         79.06922       66.87297       70.98992
H         80.29309       67.72060       70.49913
O         82.23661       64.34186       71.03661
H         81.46875       64.81053       70.62240
H         83.01895       64.90848       70.81989
O         77.96275       66.73301       73.70845
H         77.25142       66.77465       73.02213
H         78.01565       67.65265       74.06724

Ca 1.0



