%chk=apoCaM-CA-Ng.loop1.water5.frame533.chk
%nprocshared=20
%mem=10GB
%nosave
#b3lyp/svp scf=(tight,noincore,xqc) Test 
#IOP(5/87=12) Density=Current Pop=(MK,readradii) iop(6/33=2) iop(6/42=6)

apoCaM-CA-Ng.loop1.water5.frame533 

   0  1 
C         91.68073       21.59998       34.04714
C         92.28812       21.34418       32.69615
O         93.38114       21.82778       32.44263
H         90.68726       21.11298       34.14754
H         92.34799       21.20428       34.84050
H         91.54804       22.69271       34.19414
N         91.61899       20.59500       31.77150
C         92.07785       20.30653       30.41079
C         93.33843       19.42827       30.41669
O         93.95713       19.26884       31.45966
C         92.25627       21.64345       29.63726
C         92.24220       21.58706       28.13019
O         91.91279       20.46947       27.45968
O         92.44223       22.61311       27.50038
H         90.69443       20.21880       32.03411
H         91.25614       19.72237       29.93890
H         93.19681       22.12790       29.97431
H         91.41371       22.31989       29.90208
N         93.73669       18.76858       29.28903
C         94.89692       17.88760       29.18693
C         94.82627       16.76747       30.20399
O         95.76268       16.59153       30.97470
C         96.22729       18.65238       29.32148
C         96.42712       19.74680       28.27316
C         97.83483       20.33051       28.44304
C         98.11628       21.46863       27.46271
N         99.47207       21.98221       27.66033
H         93.16186       18.83956       28.44561
H         94.88516       17.41867       28.17721
H         97.04911       17.91015       29.20002
H         96.30913       19.10159       30.33549
H         95.65930       20.53919       28.41086
H         96.32606       19.31733       27.25195
H         98.58291       19.52195       28.28058
H         97.94885       20.71586       29.48007
H         97.38248       22.28774       27.63002
H         98.00859       21.10122       26.41806
H        100.17221       21.22695       27.47496
H         99.64224       22.77287       26.99888
H         99.58604       22.32949       28.64082
N         93.74050       15.94975       30.25323
C         93.63500       14.86638       31.22483
C         92.37514       14.06182       30.91244
O         91.32108       14.68244       30.87914
C         93.58114       15.45328       32.66813
C         93.96663       14.47951       33.74119
O         94.29787       13.34056       33.47174
O         94.04390       14.90471       35.01386
H         92.98756       16.09925       29.56278
H         94.55727       14.26820       31.11396
H         92.58057       15.88890       32.87642
H         94.31224       16.27376       32.78782
N         92.33591       12.72766       30.61574
C         93.42351       11.76581       30.69587
C         92.97373       10.65152       31.60745
O         91.98586       10.00341       31.28903
H         91.41932       12.34403       30.33389
H         94.36019       12.20719       31.07276
H         93.63114       11.34704       29.68827
N         93.61189       10.40933       32.78673
C         93.13537        9.44294       33.76678
C         92.39102       10.15097       34.95166
O         93.01778       11.18489       35.66873
C         94.16984        8.29172       34.00780
C         95.67046        8.45370       34.26204
O         96.30452        9.61408       34.50682
O         96.35574        7.44527       34.20887
H         94.43896       10.96967       33.01053
H         92.27587        8.88736       33.33066
H         94.16253        7.74399       33.03859
H         93.75522        7.59744       34.76915
N         91.65825        9.22775       35.83355
C         90.91002        9.89030       36.92259
C         89.70465       10.71476       36.47830
O         88.60035       10.40334       36.90204
H         90.99192        8.65276       35.26708
H         91.59222       10.52589       37.52236
H         90.55231        9.09339       37.61130
N         89.84220       11.79835       35.66005
C         88.75347       12.68977       35.26861
C         89.15447       14.12368       35.60424
O         90.16805       14.59112       35.10302
C         88.39668       12.49189       33.77434
C         89.58729       12.60130       32.81388
O         87.82073       11.21884       33.62095
H         90.77231       12.03445       35.29945
H         87.82577       12.44748       35.83391
H         87.64437       13.27549       33.51468
H         87.12562       11.29286       32.91522
H         90.07493       13.58993       32.88547
H         90.33599       11.80718       33.02087
H         89.23354       12.46691       31.77021
N         88.43692       14.85666       36.50638
C         88.86227       16.17187       36.99327
C         89.35622       16.08820       38.43858
O         89.81306       17.09755       38.95419
C         87.75015       17.25188       36.83810
C         86.45528       16.87432       37.60404
C         87.47649       17.53487       35.35053
C         85.47487       18.04096       37.74133
H         87.60248       14.42587       36.93245
H         89.74793       16.52608       36.41985
H         88.15400       18.19149       37.27822
H         86.71566       16.56369       38.63809
H         85.94601       16.02284       37.10351
H         87.06889       16.63602       34.84237
H         86.76235       18.37386       35.22574
H         88.41796       17.83624       34.84268
H         84.58779       17.70899       38.32113
H         85.95775       18.87711       38.29164
H         85.12222       18.40560       36.75667
N         89.35063       14.91102       39.13042
C         89.91556       14.73826       40.46618
C         88.85431       14.23644       41.43807
O         87.69636       14.13610       41.05848
C         91.17429       13.83088       40.36994
C         90.93409       12.48946       39.66678
O         92.17514       14.52159       39.67181
H         88.96684       14.06687       38.68849
H         90.26282       15.70683       40.88675
H         91.56352       13.59417       41.38266
H         92.55962       15.19091       40.29734
H         90.65513       12.64058       38.60249
H         91.87352       11.89680       39.67169
H         90.13959       11.90815       40.17728
N         89.18766       13.92712       42.72993
C         88.20989       13.52987       43.74403
C         88.31769       14.37179       45.02590
O         87.40168       14.29930       45.83422
C         88.37708       12.02048       44.03249
C         87.29173       11.45317       44.95650
O         89.64689       11.78153       44.58310
H         90.17934       13.93863       42.99340
H         87.18695       13.68460       43.33549
H         88.28625       11.50083       43.04876
H         89.86347       10.82928       44.40583
H         87.42243       10.35563       45.05398
H         87.35494       11.88589       45.97473
H         86.28446       11.65185       44.53208
N         89.37778       15.19359       45.28892
C         89.48927       16.00787       46.49780
C         90.68113       16.93604       46.37229
O         91.80498       16.47193       46.22390
C         89.59898       15.16659       47.80153
C         89.70538       16.09847       49.03315
C         89.62177       15.40511       50.40027
C         90.75882       14.41175       50.67195
N         90.67932       13.90812       52.04490
H         90.13386       15.28017       44.59767
H         88.56791       16.62634       46.57459
H         90.48219       14.49322       47.75639
H         88.68969       14.54201       47.91472
H         88.86371       16.82400       48.99557
H         90.65578       16.67414       48.98872
H         88.64219       14.89000       50.50047
H         89.67049       16.20665       51.17074
H         91.74032       14.91586       50.52997
H         90.69047       13.55961       49.96169
H         89.75681       13.44358       52.21008
H         91.44386       13.21351       52.20494
H         90.79792       14.69723       52.72230
N         90.48862       18.27940       46.44471
C         91.55928       19.25388       46.32456
C         92.23648       19.15819       44.95958
O         93.44396       18.96723       44.94931
C         91.02397       20.67137       46.63180
C         92.13358       21.72782       46.68001
C         91.56611       23.06210       47.07274
O         90.95466       23.21214       48.26415
O         91.65942       24.01703       46.31871
H         89.53072       18.62433       46.61437
H         92.31267       19.03418       47.11653
H         90.53895       20.63368       47.63327
H         90.25696       20.98516       45.89609
H         92.62073       21.80392       45.68373
H         92.90033       21.43648       47.42987
N         91.58892       19.25488       43.75795
C         90.16239       19.41484       43.55270
H         89.57534       19.45603       44.48114
H         89.97396       20.34789       42.98318
H         89.78350       18.55344       42.96273
H         92.15813       19.18294       42.90015
Ca        95.17499       11.29389       35.27703
O         94.50039       10.71522       38.29987
H         94.55240        9.73283       38.18737
H         94.78151       10.87599       39.23530
O         96.44904       13.81304       37.75873
H         96.51417       13.24813       38.56939
H         97.36512       14.16329       37.62488
O         97.71661       13.28488       34.86625
H         98.00382       14.18238       34.56244
H         98.46325       12.96415       35.43220
O         93.08614       13.47267       37.21795
H         92.68409       14.37367       37.13454
H         93.79420       13.57390       37.90178
O         97.54674       10.73557       37.09762
H         97.75425        9.86428       36.67628
H         98.37559       10.98043       37.57936

Ca 1.0



