%chk=apoCaM-CA-Ng.loop4.water4.frame976.chk
%nprocshared=20
%mem=10GB
%nosave
#b3lyp/svp scf=(tight,noincore,xqc) Test 
#IOP(5/87=12) Density=Current Pop=(MK,readradii) iop(6/33=2) iop(6/42=6)

apoCaM-CA-Ng.loop4.water4.frame976 

   -3  1 
C         62.94639       29.89589       78.42292
C         62.97798       31.29098       78.97826
O         62.56951       32.21856       78.29678
H         63.97785       29.48535       78.38618
H         62.32334       29.24648       79.07413
H         62.52147       29.88443       77.39690
N         63.47225       31.50435       80.22874
C         63.56467       32.80335       80.89250
C         62.20172       33.42246       81.17552
O         62.11231       34.63970       81.26489
C         64.43085       33.80838       80.11153
C         65.73819       33.27091       79.63615
O         66.53819       32.75942       80.40188
O         66.07206       33.51632       78.36102
H         63.82329       30.68725       80.75323
H         64.06143       32.63488       81.87415
H         64.63099       34.68457       80.76449
H         63.87570       34.17893       79.22091
N         61.10624       32.64694       81.39603
C         59.77303       33.19007       81.64369
C         59.47983       32.93372       83.11441
O         59.43685       31.76678       83.47981
C         58.75517       32.47208       80.69355
C         59.16474       32.61736       79.20360
C         57.31602       32.97811       80.89460
C         58.46305       31.61989       78.28028
H         61.21778       31.62127       81.40742
H         59.74985       34.27604       81.43586
H         58.79293       31.39056       80.95094
H         60.24159       32.40791       79.08717
H         58.98087       33.65154       78.85447
H         57.00568       32.87779       81.95474
H         57.23433       34.04113       80.58296
H         56.59663       32.39463       80.28699
H         58.82989       31.75914       77.24087
H         58.71078       30.58315       78.59633
H         57.36404       31.75076       78.27913
N         59.34449       33.91172       84.06548
C         59.34744       35.36510       83.84893
C         59.68728       36.11079       85.15231
O         59.83049       35.48236       86.19294
C         57.93888       35.75217       83.32999
C         57.69771       37.21038       83.08139
O         56.72006       37.84865       83.75097
O         58.36655       37.81975       82.26561
H         59.22398       33.56838       85.03014
H         60.15090       35.63990       83.13227
H         57.18869       35.40180       84.07275
H         57.74674       35.22926       82.38152
N         59.84083       37.46737       85.17320
C         60.08340       38.18498       86.41397
C         60.04031       39.67911       86.21172
O         61.00238       40.35271       86.54880
H         59.76249       38.00590       84.30087
H         61.05996       37.87261       86.84588
H         59.27732       37.93595       87.13656
N         58.92014       40.25848       85.68686
C         58.75143       41.70408       85.51055
C         57.37409       42.14900       84.98248
O         57.13883       43.34772       85.04204
C         59.88241       42.32072       84.63662
C         60.17310       41.55144       83.37192
O         59.32128       41.39074       82.51736
O         61.40083       41.03236       83.17914
H         58.15992       39.61691       85.44403
H         58.82025       42.16583       86.52089
H         60.82259       42.34272       85.22289
H         59.65264       43.38331       84.40092
N         56.41563       41.31742       84.45955
C         55.12848       41.80893       83.96798
C         55.23387       42.70033       82.73723
O         54.21343       43.20020       82.28788
H         56.56234       40.30711       84.39351
H         54.61899       42.35963       84.78737
H         54.48848       40.94293       83.68871
N         56.43088       42.92375       82.12921
C         56.66832       43.74369       80.95221
C         55.96902       43.17017       79.73521
O         55.41204       43.90972       78.93610
C         56.38831       45.23873       81.22491
C         57.15361       45.70898       82.47793
C         56.98740       47.16908       82.80289
N         57.57424       47.67064       83.91483
O         56.32769       47.90255       82.08137
H         57.26315       42.46897       82.50205
H         57.75644       43.65699       80.72737
H         55.30054       45.40508       81.37949
H         56.71647       45.83198       80.34326
H         58.23834       45.50044       82.35245
H         56.77967       45.14181       83.35228
H         58.12601       47.06018       84.53686
H         57.47296       48.66586       84.16140
N         55.98884       41.82078       79.54122
C         55.46127       41.14509       78.36047
C         56.51100       40.23062       77.71982
O         56.20837       39.65113       76.68492
C         54.19780       40.30959       78.73393
C         54.48609       39.21794       79.78381
C         53.06284       41.21389       79.23183
H         56.38475       41.23941       80.29240
H         55.16385       41.89479       77.59424
H         53.83118       39.80493       77.81210
H         53.57041       38.61849       79.97286
H         55.27132       38.52325       79.42511
H         54.81039       39.65727       80.75047
H         52.15393       40.60816       79.43714
H         53.35250       41.73827       80.16570
H         52.80668       41.96843       78.45858
N         57.71610       39.97418       78.31624
C         58.62047       38.91897       77.88162
C         60.07259       39.40351       77.87914
O         60.34399       40.53599       78.25604
C         58.42049       37.76570       78.89555
C         59.20809       36.52098       78.61352
N         60.15426       36.09902       79.48251
O         59.00736       35.89842       77.58111
H         57.95778       40.41939       79.20992
H         58.35083       38.55604       76.86542
H         57.34917       37.47325       78.91629
H         58.68724       38.15729       79.89534
H         60.34336       36.61594       80.35456
H         60.71292       35.26075       79.27241
N         61.06431       38.54976       77.50262
C         62.49106       38.81200       77.58997
C         63.08803       38.58079       76.22341
O         62.81741       37.54090       75.63558
C         63.09381       37.83916       78.62089
C         64.57184       38.05502       78.83517
C         65.05035       39.27357       79.34846
C         65.48457       37.03056       78.54063
C         66.41893       39.46022       79.56370
C         66.85136       37.21854       78.75744
C         67.32373       38.43430       79.27201
O         68.63981       38.62598       79.49264
H         60.80573       37.61908       77.15488
H         62.68796       39.85003       77.93608
H         62.89552       36.79450       78.29178
H         62.58288       37.98097       79.59849
H         64.36595       40.07719       79.58966
H         65.13903       36.08543       78.14452
H         66.77536       40.40188       79.96259
H         67.53982       36.41759       78.52752
H         69.29669       37.93822       79.31305
N         63.89423       39.50882       75.64292
C         64.32527       39.40362       74.25962
C         65.82958       39.17477       74.16466
O         66.55377       40.15941       74.15060
C         63.80463       40.66685       73.51844
C         64.10193       40.76145       72.01091
C         65.51565       41.17453       71.71721
O         65.97836       42.35504       72.17615
O         66.24249       40.46224       71.04454
H         64.16853       40.34634       76.17995
H         63.81261       38.56910       73.77009
H         64.15616       41.59604       74.01975
H         62.69663       40.64295       73.62417
H         63.45668       41.55873       71.58245
H         63.84143       39.80335       71.51218
N         66.42481       37.93526       74.08395
C         65.78978       36.61895       74.27037
C         64.69300       36.29894       73.26963
O         64.56556       36.95880       72.24704
C         66.83848       35.47481       74.12733
C         67.96674       35.46793       75.16985
C         69.02754       34.45127       74.79512
O         69.65594       34.59215       73.75807
O         69.33083       33.41865       75.60887
H         67.44694       37.94397       73.94974
H         65.34246       36.60338       75.28890
H         67.27992       35.56379       73.10981
H         66.34108       34.48156       74.19510
H         67.52961       35.25354       76.16690
H         68.46734       36.45411       75.22917
N         63.85643       35.25244       73.52628
C         62.77748       34.87406       72.64292
H         62.06477       35.71821       72.53190
H         63.18188       34.58594       71.65074
H         62.23039       34.00529       73.07041
H         63.97747       34.70945       74.39594
Ca        67.99805       33.03526       77.35840
O         68.97918       30.81463       80.20539
H         68.39701       30.74204       81.00300
H         69.89666       30.69193       80.55687
O         69.69963       34.51428       79.33151
H         68.76816       34.49702       79.66723
H         69.67249       35.12475       78.55212
O         65.88851       31.45091       75.34810
H         65.30285       32.05656       75.86842
H         66.58029       32.04490       74.96201
O         70.91624       31.46355       77.76168
H         71.22103       32.24336       78.29025
H         71.33732       31.58550       76.87394

Ca 1.0



