%chk=apoCaM-CA-Ng.loop4.water3.frame64.chk
%nprocshared=20
%mem=10GB
%nosave
#b3lyp/svp scf=(tight,noincore,xqc) Test 
#IOP(5/87=12) Density=Current Pop=(MK,readradii) iop(6/33=2) iop(6/42=6)

apoCaM-CA-Ng.loop4.water3.frame64 

   -3  1 
C         26.73050       34.17241       80.68305
C         25.26050       34.02753       80.94921
O         24.78379       34.65047       81.87659
H         27.30236       33.86029       81.58189
H         27.05396       33.55090       79.82247
H         26.96280       35.23515       80.45780
N         24.48777       33.22238       80.16694
C         23.04329       33.00683       80.28393
C         22.19708       34.26008       79.94436
O         21.71912       35.00026       81.03063
C         22.63154       32.19992       81.54500
C         22.97240       32.78462       82.89286
O         22.39235       33.91523       83.32952
O         23.75352       32.19925       83.62631
H         24.95634       32.72273       79.39572
H         22.77889       32.32585       79.44428
H         23.15007       31.21900       81.47120
H         21.53879       32.00119       81.51327
N         22.74572       35.02636       78.80652
C         22.02020       36.18544       78.22551
C         20.52426       35.92717       78.01216
O         20.12370       35.81045       76.86174
C         22.39385       37.50826       78.94459
C         21.80576       38.77435       78.26003
C         23.92912       37.64128       79.06748
C         22.24770       39.02216       76.81177
H         22.86571       34.33101       78.03208
H         22.45373       36.30263       77.20609
H         21.98708       37.47066       79.96806
H         22.11846       39.66025       78.84718
H         20.69754       38.72808       78.28297
H         24.20018       38.58136       79.59299
H         24.35504       36.80029       79.65358
H         24.41799       37.63444       78.07068
H         23.34925       39.12558       76.73302
H         21.90127       38.21094       76.14085
H         21.79856       39.97237       76.45234
N         19.64644       35.77889       79.04731
C         18.27207       35.34006       78.85266
C         17.39134       36.44665       78.28417
O         16.81614       36.20936       77.23119
C         17.68529       34.68717       80.13136
C         18.50254       33.50160       80.57760
O         19.03628       33.47547       81.81331
O         18.67281       32.55118       79.83063
H         19.96668       35.89930       80.00936
H         18.27987       34.49962       78.11904
H         16.65554       34.32927       79.91336
H         17.62634       35.38595       80.97898
N         17.19174       37.66964       78.86694
C         17.84518       38.13647       80.08702
C         17.35691       39.50351       80.54896
O         16.46911       40.05517       79.91389
H         16.53694       38.29974       78.37947
H         18.93729       38.17686       79.91180
H         17.59967       37.44580       80.89089
N         17.84460       40.15373       81.65287
C         18.91581       39.73529       82.56044
C         20.25374       39.60608       81.84648
O         20.79317       38.51070       81.81718
C         18.57165       38.47029       83.39150
C         17.33069       38.58970       84.23431
O         16.64647       39.60066       84.22334
O         16.97981       37.56266       85.03140
H         17.41458       41.06649       81.87164
H         19.05533       40.53055       83.32689
H         19.41775       38.28567       84.08923
H         18.48622       37.57224       82.76186
N         20.92185       40.66816       81.30670
C         20.47274       42.05088       81.31958
C         20.53689       42.67936       79.94783
O         20.89666       42.02319       78.97996
H         21.85932       40.49292       80.91571
H         21.16139       42.62596       81.97385
H         19.45130       42.16405       81.72367
N         20.21945       43.99684       79.80800
C         20.32059       44.71318       78.53831
C         21.77015       44.90917       78.08793
O         21.95667       45.44783       77.00462
C         19.64206       46.10123       78.64602
C         18.12795       45.98791       78.90941
C         17.43140       47.32680       78.97506
N         16.09274       47.37569       79.16549
O         18.06120       48.36822       78.85487
H         19.88923       44.50329       80.64407
H         19.78218       44.13363       77.75546
H         19.77097       46.64487       77.68352
H         20.12975       46.69543       79.45167
H         17.94245       45.45762       79.86652
H         17.66798       45.40088       78.08525
H         15.54469       46.50840       79.26486
H         15.60113       48.28069       79.20934
N         22.84079       44.53655       78.85510
C         24.23231       44.78481       78.47187
C         24.91497       45.75893       79.43157
O         26.02948       46.16649       79.13609
C         25.03144       43.46031       78.34147
C         24.42852       42.55892       77.25409
C         25.10667       42.69603       79.66728
H         22.67478       44.09048       79.76510
H         24.26430       45.28442       77.47827
H         26.07082       43.70905       78.03086
H         24.41883       43.09011       76.27881
H         25.03766       41.63677       77.13950
H         23.38909       42.26313       77.51141
H         25.56604       43.32354       80.45953
H         24.09120       42.39250       79.98620
H         25.72541       41.78102       79.55119
N         24.29605       46.21423       80.56334
C         24.82567       47.28186       81.40055
C         25.06505       46.87200       82.85368
O         26.14218       47.17476       83.35008
C         23.93130       48.54601       81.26857
C         22.44575       48.43899       81.55811
N         21.66230       49.53063       81.40482
O         21.93155       47.39059       81.90770
H         23.37161       45.85074       80.81136
H         25.81437       47.62408       81.01716
H         24.00964       48.88721       80.21273
H         24.35910       49.34644       81.91155
H         22.06484       50.43045       81.10550
H         20.64893       49.47608       81.58748
N         24.12039       46.24823       83.61894
C         24.24408       46.09677       85.06924
C         24.21288       44.64827       85.52657
O         23.35247       43.89675       85.09069
C         23.07591       46.83475       85.75484
C         23.01535       48.30481       85.41150
C         21.86574       48.83845       84.80548
C         24.09158       49.15963       85.70687
C         21.79464       50.19953       84.49757
C         24.01985       50.52036       85.39272
C         22.86934       51.04453       84.78644
O         22.78379       52.35466       84.48035
H         23.24438       45.93131       83.18635
H         25.18302       46.55821       85.44328
H         23.18445       46.74410       86.85729
H         22.12097       46.33964       85.46814
H         21.02081       48.20294       84.57091
H         24.98603       48.77673       86.18063
H         20.90183       50.59690       84.03145
H         24.85727       51.16631       85.62395
H         23.50309       52.97477       84.66617
N         25.05863       44.24043       86.52429
C         25.00485       42.94397       87.20392
C         25.41296       41.76787       86.33360
O         25.34079       40.64593       86.81791
C         23.62999       42.69808       87.87048
C         23.27561       43.79000       88.88935
C         21.98025       43.46946       89.57814
O         21.86217       42.33992       90.30321
O         21.03235       44.23344       89.49362
H         25.74046       44.92067       86.89413
H         25.74983       42.96007       88.03232
H         23.67530       41.72828       88.41439
H         22.82682       42.61743       87.10949
H         23.19388       44.77102       88.37482
H         24.07369       43.86138       89.65986
N         25.95173       41.93638       85.09398
C         26.47321       40.82667       84.30701
C         27.98744       40.76023       84.39083
O         28.55628       39.84679       83.80705
C         26.01337       40.96714       82.84378
C         24.49684       40.80178       82.68076
C         24.08522       39.41597       83.04835
O         24.61659       38.47292       82.48853
O         23.15667       39.20182       83.99896
H         26.10231       42.88772       84.72886
H         26.12454       39.85012       84.71168
H         26.51104       40.19491       82.21495
H         26.32629       41.95994       82.45632
H         24.23623       40.93736       81.61744
H         23.94205       41.55433       83.28080
N         28.71510       41.64926       85.12534
C         30.15055       41.53820       85.24656
H         30.62213       41.60563       84.24401
H         30.53942       42.35876       85.88543
H         30.41278       40.56665       85.71822
H         28.25621       42.42050       85.62997
Ca        22.97058       36.49206       82.16005
O         19.98344       35.65392       84.00095
H         20.01002       34.72637       84.34422
H         20.07042       35.56526       83.01940
O         21.78733       37.10473       85.75981
H         22.39259       37.13634       86.54231
H         20.90826       37.39338       86.11274
O         24.92012       36.25365       84.95845
H         24.78959       35.29634       84.74186
H         25.54364       36.58201       84.26307

Ca 1.0



