%chk=apoCaM-CA-Ng.loop1.water3.frame496.chk
%nprocshared=20
%mem=10GB
%nosave
#b3lyp/svp scf=(tight,noincore,xqc) Test 
#IOP(5/87=12) Density=Current Pop=(MK,readradii) iop(6/33=2) iop(6/42=6)

apoCaM-CA-Ng.loop1.water3.frame496 

   0  1 
C         59.49863       41.78212       71.94962
C         60.13773       42.19565       70.65858
O         59.57646       43.04651       69.98290
H         58.50368       41.33297       71.74406
H         60.12101       41.04171       72.49252
H         59.36318       42.67625       72.59411
N         61.30039       41.61755       70.23277
C         61.95213       41.98841       68.98295
C         61.80588       40.85174       67.98233
O         62.79652       40.40983       67.41942
C         63.43848       42.34851       69.22389
C         63.63704       43.45806       70.21833
O         64.19644       44.48964       69.88210
O         63.24970       43.30067       71.49867
H         61.72274       40.86436       70.79690
H         61.46053       42.87597       68.54091
H         63.89078       42.65157       68.25605
H         63.98386       41.45331       69.59435
N         60.57931       40.30671       67.73057
C         60.37006       39.22189       66.77806
C         59.20142       39.52864       65.84437
O         58.10985       39.72431       66.36173
C         60.05369       37.90009       67.51435
C         61.22628       37.25434       68.28339
C         62.39870       36.87299       67.35458
C         63.37719       35.85582       67.96508
N         64.02076       36.33648       69.18575
H         59.76592       40.64285       68.26852
H         61.27558       39.06166       66.19804
H         59.73231       37.14853       66.75803
H         59.19958       38.05697       68.20980
H         60.81886       36.31967       68.72724
H         61.57850       37.90702       69.11101
H         62.95048       37.78445       67.04333
H         61.98938       36.38300       66.44535
H         64.15960       35.63117       67.20530
H         62.83462       34.90852       68.18069
H         64.53912       37.22423       68.99735
H         63.31120       36.48151       69.93872
H         64.69891       35.60902       69.51089
N         59.27195       39.52104       64.47212
C         60.46126       39.35839       63.63347
C         61.22718       38.06597       63.92171
O         62.37033       38.13116       64.35049
C         61.33517       40.62918       63.69312
C         60.66684       41.83489       63.07807
O         59.52226       41.78341       62.65437
O         61.36865       42.97251       62.93286
H         58.38369       39.65566       63.96318
H         60.14803       39.29214       62.56856
H         62.23380       40.45389       63.08046
H         61.65336       40.85572       64.73057
N         60.70600       36.83421       63.66990
C         59.44810       36.64714       62.97058
C         59.12975       35.18864       62.68837
O         59.79677       34.30810       63.21269
H         61.28594       36.01555       63.90867
H         59.56268       37.14930       61.98675
H         58.60656       37.10583       63.53070
N         58.15210       34.82866       61.80720
C         57.36661       35.78744       61.03399
C         57.99374       36.00080       59.66610
O         58.92121       35.28868       59.30320
C         55.87574       35.37436       60.98963
C         55.57313       34.05590       60.31480
O         54.30111       33.61536       60.28174
O         56.44944       33.38181       59.79692
H         58.05519       33.82424       61.59625
H         57.39138       36.77856       61.52926
H         55.29046       36.16186       60.46914
H         55.50716       35.31433       62.03663
N         57.56358       37.01899       58.86996
C         58.12965       37.30266       57.56073
C         59.57161       37.79723       57.56214
O         60.07711       38.01235       56.46989
H         56.77956       37.60661       59.19183
H         57.52078       38.09605       57.07488
H         58.05295       36.38720       56.93497
N         60.29613       38.02198       58.70268
C         61.67822       38.50758       58.68603
C         62.58658       37.47930       59.32850
O         62.39939       37.16463       60.49671
C         61.80106       39.85649       59.43294
C         60.95463       40.94661       58.77292
O         63.14548       40.26556       59.42663
H         59.86500       37.85631       59.62228
H         62.02529       38.67548       57.64298
H         61.45692       39.70930       60.48365
H         63.25409       40.91977       60.16556
H         59.88105       40.66761       58.77326
H         61.07047       41.89705       59.33599
H         61.29134       41.11162       57.72682
N         63.60488       36.91271       58.61481
C         64.50242       35.91756       59.19878
C         65.38120       36.50425       60.30433
O         66.00446       35.72109       61.00913
C         65.35926       35.17870       58.12052
C         66.37220       36.11882       57.41144
C         64.43429       34.45752       57.11736
C         67.30065       35.38739       56.43643
H         63.71170       37.17342       57.62470
H         63.85680       35.14230       59.67075
H         65.94179       34.39032       58.64868
H         67.01985       36.59301       58.17936
H         65.84587       36.92477       56.85922
H         63.72994       33.79078       57.65850
H         63.84477       35.17896       56.51447
H         65.01227       33.81494       56.42396
H         68.03590       36.10490       56.01530
H         67.85491       34.57972       56.96029
H         66.73667       34.95443       55.58545
N         65.49220       37.85325       60.51490
C         66.26627       38.43752       61.61037
C         65.37103       39.28553       62.50763
O         64.21453       39.49742       62.17990
C         67.47153       39.24935       61.07051
C         67.06169       40.45759       60.21607
O         68.29220       38.39676       60.31384
H         65.00757       38.50138       59.88044
H         66.67973       37.62635       62.24961
H         68.04612       39.62352       61.94999
H         69.19059       38.81863       60.27330
H         67.97013       41.01116       59.89628
H         66.51556       40.13819       59.30513
H         66.42471       41.15371       60.80029
N         65.84505       39.75924       63.69294
C         65.04471       40.52285       64.65927
C         64.75809       41.95606       64.19576
O         65.24979       42.37040       63.15560
C         65.75050       40.53640       66.05800
C         67.14568       41.18287       66.07517
O         65.79658       39.24446       66.61188
H         66.80367       39.48206       63.94395
H         64.07402       40.00729       64.80722
H         65.14222       41.13468       66.75884
H         66.32601       38.66343       66.00977
H         67.10239       42.22020       65.68542
H         67.51973       41.22074       67.12027
H         67.88013       40.60818       65.47764
N         64.02411       42.79011       65.00077
C         63.93613       44.23930       64.82057
C         62.53074       44.81423       65.07073
O         62.33763       45.99371       64.80931
C         64.95455       44.82143       65.82049
C         65.15317       46.33957       65.83293
C         66.25525       46.67155       66.84905
C         66.51487       48.17407       66.95822
N         67.58627       48.43541       67.92007
H         63.67852       42.41014       65.88875
H         64.24597       44.51019       63.78648
H         65.93835       44.35921       65.58270
H         64.66097       44.50046       66.84439
H         64.21654       46.84984       66.13927
H         65.45217       46.69066       64.82140
H         67.19669       46.16441       66.54144
H         65.95814       46.28809       67.85104
H         65.58545       48.68754       67.29077
H         66.80734       48.57506       65.96295
H         68.47100       47.97389       67.60507
H         67.74717       49.46571       67.98639
H         67.32050       48.07133       68.86437
N         61.50596       44.06744       65.57916
C         60.16369       44.59221       65.83339
C         60.18419       45.70384       66.86814
O         60.68958       45.48873       67.96147
C         59.25572       43.44841       66.34331
C         57.77637       43.80918       66.56062
C         57.09929       44.06477       65.24990
O         57.31041       45.09048       64.62465
O         56.35686       43.08412       64.70383
H         61.66685       43.07540       65.78929
H         59.75405       44.96749       64.87549
H         59.65370       43.07902       67.30434
H         59.29642       42.60248       65.62192
H         57.62807       44.64976       67.27359
H         57.30589       42.90764       67.00937
N         59.59511       46.90455       66.60177
C         59.50515       47.98303       67.56727
H         58.43491       48.19507       67.77851
H         60.00295       47.73698       68.52880
H         59.97447       48.89735       67.14982
H         59.15137       47.05714       65.68375
Ca        55.95181       43.04729       62.48586
O         58.31263       43.40686       59.77225
H         58.18777       42.90429       58.92847
H         59.24308       43.74211       59.72509
O         58.86918       45.25598       62.29889
H         59.04635       44.35053       62.65552
H         59.61441       45.42663       61.67198
O         56.11050       45.70183       61.27133
H         55.17042       45.42879       61.42001
H         56.14410       46.64608       61.56514

Ca 1.0



