%chk=apoCaM-CA-Ng.loop4.water2.frame262.chk
%nprocshared=20
%mem=10GB
%nosave
#b3lyp/svp scf=(tight,noincore,xqc) Test 
#IOP(5/87=12) Density=Current Pop=(MK,readradii) iop(6/33=2) iop(6/42=6)

apoCaM-CA-Ng.loop4.water2.frame262 

   -3  1 
C         40.36587       49.36125      101.84841
C         41.59258       49.80289      102.58753
O         41.58510       49.74385      103.80783
H         39.50402       49.98390      102.17246
H         40.48921       49.47633      100.75193
H         40.14981       48.29792      102.08036
N         42.69031       50.26161      101.91560
C         43.88247       50.78100      102.57528
C         44.53092       49.76784      103.49592
O         44.39772       49.87596      104.70287
C         43.69066       52.22564      103.12742
C         42.35808       52.54336      103.75497
O         42.03324       52.20764      105.01327
O         41.54400       53.18475      103.10854
H         42.68173       50.25506      100.88487
H         44.66591       50.95169      101.80127
H         43.71970       52.87160      102.22021
H         44.54472       52.56052      103.75631
N         45.31575       48.78754      102.94359
C         46.21042       47.86211      103.64550
C         47.46762       48.60240      104.10598
O         48.53471       48.26524      103.60859
C         45.49605       46.97645      104.70196
C         46.46847       45.99945      105.42380
C         44.34361       46.20029      104.03265
C         47.19996       44.99470      104.52315
H         45.33760       48.72684      101.91347
H         46.57958       47.15106      102.87119
H         45.06111       47.61997      105.49149
H         45.89302       45.41998      106.17650
H         47.23261       46.58897      105.97442
H         43.59331       46.90078      103.61040
H         44.71613       45.56198      103.20381
H         43.82741       45.54822      104.76328
H         47.84873       45.50851      103.78556
H         47.85240       44.35069      105.15024
H         46.48625       44.33369      103.99093
N         47.43434       49.67301      104.95208
C         48.59533       50.53105      105.13938
C         49.63304       49.90574      106.06414
O         50.75982       49.75267      105.61437
C         48.17376       51.96862      105.53443
C         49.33238       52.92657      105.46921
O         49.92217       53.10495      104.41454
O         49.70934       53.61185      106.56465
H         46.54726       49.98575      105.35077
H         49.05728       50.67499      104.13428
H         47.71212       52.02029      106.53146
H         47.40686       52.32681      104.81329
N         49.39275       49.51514      107.35265
C         48.08996       49.55930      108.00878
C         48.14026       49.13453      109.46591
O         49.21520       48.82214      109.95846
H         50.20123       49.13914      107.87093
H         47.40387       48.88899      107.45642
H         47.71474       50.58495      108.01273
N         47.03519       49.08406      110.26845
C         45.64639       49.38176      109.91830
C         45.17154       48.48542      108.77772
O         44.81525       48.99444      107.72419
C         45.41760       50.88791      109.65264
C         43.98559       51.24302      109.94953
O         43.12695       51.63063      108.99625
O         43.57898       51.16756      111.09883
H         47.18961       48.77324      111.24140
H         45.04382       49.14967      110.82475
H         45.69565       51.16853      108.61752
H         46.03057       51.49816      110.35035
N         45.17413       47.12655      108.87398
C         45.45828       46.39652      110.09344
C         46.69277       45.55507      109.99177
O         47.32235       45.47601      108.94554
H         44.93185       46.57645      108.04049
H         44.59168       45.74443      110.33184
H         45.59758       47.06384      110.95801
N         47.10703       44.90611      111.11076
C         48.25736       44.01663      111.14550
C         47.95559       42.73077      110.39568
O         48.89419       42.02146      110.05984
C         48.61728       43.69418      112.60996
C         49.05695       44.96734      113.36424
C         49.22194       44.76395      114.84879
N         49.60064       45.80520      115.62520
O         48.99637       43.67767      115.36259
H         46.56725       45.05826      111.97705
H         49.12316       44.53115      110.66864
H         49.44299       42.95080      112.65910
H         47.71726       43.25266      113.09483
H         48.30251       45.77160      113.24112
H         50.01637       45.32590      112.93147
H         49.78929       46.72903      115.20806
H         49.69982       45.69178      116.64460
N         46.66779       42.35038      110.12929
C         46.31747       41.14811      109.38292
C         45.55852       40.13181      110.22996
O         45.32497       39.04301      109.72520
C         45.47667       41.51827      108.12554
C         46.24412       42.46811      107.19697
C         44.11239       42.13931      108.48602
H         45.89424       42.93484      110.47265
H         47.24495       40.63669      109.04205
H         45.27781       40.58342      107.55640
H         46.45093       43.43108      107.70398
H         47.20672       42.01214      106.88577
H         45.64528       42.68012      106.28532
H         43.53461       42.31560      107.55873
H         43.51719       41.45198      109.12258
H         44.22131       43.10999      109.01378
N         45.11131       40.40973      111.49324
C         44.35308       39.44953      112.29226
C         42.92647       39.91473      112.54672
O         42.18849       39.13658      113.13766
C         45.03752       39.24227      113.66140
C         46.43937       38.69836      113.56526
N         46.76315       37.52541      114.15870
O         47.29932       39.33339      112.97309
H         45.28707       41.33287      111.91191
H         44.28199       38.47067      111.76922
H         44.42037       38.54412      114.26980
H         45.07555       40.21361      114.20085
H         46.05841       36.98023      114.67714
H         47.72664       37.16356      114.11048
N         42.44893       41.13423      112.15372
C         41.11123       41.61422      112.52476
C         40.68401       42.82191      111.70510
O         41.53054       43.46339      111.10730
C         41.11840       42.10829      113.99912
C         41.45689       41.06829      115.02872
C         40.54724       40.04236      115.32530
C         42.68625       41.12030      115.70836
C         40.86523       39.07923      116.28713
C         43.00630       40.15056      116.66034
C         42.09827       39.12913      116.95564
O         42.41966       38.20472      117.88218
H         43.05849       41.74344      111.59054
H         40.37193       40.80644      112.32474
H         40.13956       42.55025      114.28354
H         41.87129       42.92842      114.05172
H         39.59371       39.99414      114.81421
H         43.40475       41.90158      115.49086
H         40.15361       38.29514      116.51034
H         43.96179       40.19437      117.16796
H         41.81747       37.48594      118.12081
N         39.37649       43.22649      111.73791
C         38.79837       44.44519      111.16032
C         38.77070       44.48303      109.63382
O         37.67719       44.50263      109.08335
C         39.42963       45.71792      111.75763
C         39.27658       45.74965      113.28800
C         39.81653       47.02343      113.86628
O         40.99456       47.31211      113.72951
O         39.00370       47.84758      114.55492
H         38.72269       42.64242      112.28402
H         37.72729       44.46236      111.47278
H         38.90226       46.60185      111.33406
H         40.50271       45.79006      111.48225
H         39.81856       44.89683      113.74619
H         38.19932       45.66281      113.55195
N         39.90436       44.53186      108.87658
C         39.89879       44.62926      107.41942
C         39.21544       43.44120      106.74794
O         38.99782       43.51112      105.54534
C         41.34298       44.69717      106.85905
C         42.24158       45.81829      107.40730
C         41.74317       47.19056      107.07142
O         41.48009       48.07099      108.05562
O         41.60537       47.52642      105.90649
H         40.80465       44.55206      109.34559
H         39.34645       45.55643      107.14833
H         41.30836       44.79067      105.75110
H         41.83905       43.73459      107.09744
H         43.24097       45.68733      106.95277
H         42.37880       45.72981      108.50372
N         38.88042       42.30687      107.42806
C         38.24949       41.18298      106.77215
H         37.26934       41.49156      106.35096
H         38.90270       40.80461      105.95704
H         38.08265       40.36316      107.50264
H         39.09191       42.21066      108.43065
Ca        43.30500       51.63110      106.76297
O         40.33332       51.00266      109.03073
H         39.68617       50.43889      109.52344
H         40.51368       51.76370      109.63781
O         39.50416       50.35639      106.12440
H         39.19621       49.78643      105.37585
H         38.83293       50.21064      106.83747

Ca 1.0



