%chk=apoCaM-CA-Ng.loop3.water2.frame963.chk
%nprocshared=20
%mem=10GB
%nosave
#b3lyp/svp scf=(tight,noincore,xqc) Test 
#IOP(5/87=12) Density=Current Pop=(MK,readradii) iop(6/33=2) iop(6/42=6)

apoCaM-CA-Ng.loop3.water2.frame963 

   0  1 
C         75.31301      112.36527       50.52054
C         75.87624      113.00331       51.75504
O         75.13731      113.18962       52.71200
H         74.48859      112.98644       50.11666
H         76.09060      112.24274       49.73747
H         74.92080      111.35802       50.77891
N         77.19868      113.32289       51.82465
C         77.81836      113.77908       53.05781
C         77.61773      115.28358       53.24534
O         78.06964      116.06609       52.42189
C         79.30158      113.35725       53.07016
C         79.93256      113.40382       54.43163
O         81.11066      113.11253       54.55484
O         79.22708      113.75723       55.52040
H         77.80260      113.09280       51.02024
H         77.35191      113.21329       53.88898
H         79.87063      113.98509       52.35211
H         79.38457      112.30134       52.74150
N         76.92936      115.74172       54.32506
C         76.65524      117.14418       54.64258
C         77.94427      117.91982       54.87822
O         78.08985      119.00795       54.33980
C         75.76645      117.21838       55.91396
C         74.36652      116.61095       55.67296
C         73.54369      116.52802       56.96585
C         72.15564      115.92576       56.69050
N         71.39849      115.75011       57.92966
H         76.57762      115.03549       54.97591
H         76.08614      117.62813       53.81675
H         75.62847      118.27908       56.22195
H         76.27780      116.68139       56.74364
H         74.45353      115.57948       55.27385
H         73.82989      117.22873       54.91926
H         73.42590      117.53912       57.41298
H         74.08382      115.87694       57.68814
H         72.26767      114.93428       56.19708
H         71.59190      116.59579       56.00330
H         71.89574      115.07814       58.55881
H         71.27728      116.66772       58.41590
H         70.45555      115.35900       57.70172
N         78.92389      117.40429       55.67185
C         80.17500      118.08782       56.00921
C         81.38743      117.43526       55.34351
O         82.48827      117.93033       55.54515
C         80.33159      118.22317       57.55568
C         79.97921      116.98058       58.32724
O         78.80320      116.66486       58.42043
O         80.90496      116.05348       58.61423
H         78.78458      116.44960       56.03074
H         80.17943      119.12484       55.60613
H         79.63199      119.00764       57.91517
H         81.35448      118.57143       57.81440
N         81.26749      116.40174       54.45883
C         82.38101      115.89640       53.66492
C         83.47962      115.18092       54.43035
O         84.43948      114.79303       53.77926
H         80.33667      116.02445       54.24409
H         82.82886      116.74885       53.10771
H         81.99055      115.18170       52.90907
N         83.43713      114.96440       55.77901
C         84.53073      114.33171       56.52086
C         84.02939      113.08821       57.26714
O         82.82863      112.92917       57.42338
C         85.05758      115.39958       57.51718
C         86.37184      115.13453       58.21457
N         86.78217      115.96879       59.19715
O         87.08851      114.20439       57.88697
H         82.62478      115.29464       56.31525
H         85.33986      114.03665       55.81886
H         84.26556      115.56344       58.28164
H         85.19947      116.36137       56.97616
H         86.19850      116.76708       59.48728
H         87.67977      115.80959       59.67836
N         84.89916      112.18214       57.79987
C         84.49965      111.11685       58.70612
C         83.57285      110.09772       58.09243
O         83.96442      109.42295       57.15103
H         85.90306      112.27347       57.61433
H         84.02964      111.58033       59.59961
H         85.40596      110.57521       59.05377
N         82.32133      109.92267       58.60593
C         81.38832      108.90340       58.13987
C         80.33748      109.53345       57.24181
O         80.43329      110.71727       56.95475
C         80.71624      108.20228       59.35102
C         81.67209      107.61649       60.36331
C         81.56536      107.98181       61.71781
C         82.64595      106.67793       59.98395
C         82.41311      107.41644       62.67386
C         83.50119      106.12153       60.94180
C         83.38574      106.48416       62.28839
O         84.20781      105.92782       63.20116
H         82.00328      110.55369       59.35674
H         81.91606      108.13804       57.53076
H         80.08442      107.36524       58.99130
H         80.04268      108.92894       59.85716
H         80.81382      108.69191       62.04091
H         82.74368      106.37453       58.94998
H         82.30852      107.69972       63.71405
H         84.24992      105.40106       60.63810
H         84.15187      106.14354       64.14330
N         79.30336      108.77904       56.76048
C         78.21726      109.24981       55.90394
C         77.44110      110.37425       56.57184
O         77.99314      111.44668       56.76624
C         78.72224      109.66035       54.49095
C         77.56395      110.09797       53.54984
C         79.55173      108.53483       53.84875
C         76.49776      109.03474       53.27078
H         79.26295      107.78403       57.02214
H         77.53573      108.38282       55.76831
H         79.40026      110.53408       54.59642
H         77.99333      110.41405       52.57535
H         77.04915      110.97482       53.98911
H         80.44012      108.30124       54.47264
H         78.95601      107.60602       53.73686
H         79.92038      108.85397       52.85073
H         76.93829      108.14075       52.78604
H         75.97444      108.73545       54.20099
H         75.73689      109.45847       52.58212
N         76.14875      110.19552       56.96377
C         75.37396      111.25126       57.60680
C         74.16036      110.67674       58.29689
O         73.32400      110.05815       57.65118
C         74.91914      112.33137       56.60906
O         76.00999      112.98522       56.03861
H         75.72608      109.26073       56.85314
H         76.00812      111.73139       58.38258
H         74.27332      113.08447       57.11926
H         74.31126      111.87922       55.79714
H         76.38041      113.58070       56.74279
N         73.99609      110.89047       59.63087
C         72.85479      110.39927       60.39533
C         72.81400      111.02583       61.78757
O         73.79786      111.62641       62.19992
C         72.94450      108.87265       60.50817
H         74.70836      111.46767       60.10096
H         71.93221      110.72452       59.86622
H         72.88293      108.39298       59.50932
H         73.90903      108.58447       60.97749
H         72.14151      108.47128       61.14380
N         71.70563      111.01883       62.58195
C         70.40086      110.43804       62.27689
C         69.95278      109.58359       63.45400
O         70.12658      110.02882       64.58050
C         69.39883      111.57695       62.08068
H         71.77893      111.53863       63.47167
H         70.40028      109.86677       61.33088
H         68.39176      111.16447       61.85454
H         69.33277      112.21421       62.98809
H         69.71575      112.20881       61.22298
N         69.31493      108.38493       63.33500
C         68.85141      107.78614       62.09010
C         69.94451      106.95227       61.46743
O         70.24970      107.15990       60.30147
C         67.59306      106.92988       62.35200
C         66.43354      107.80131       62.88090
C         65.16133      107.03431       63.11668
O         64.07573      107.68836       63.57176
O         65.09293      105.83381       62.90365
H         69.02326      107.93209       64.21668
H         68.52554      108.57404       61.37464
H         67.82100      106.12070       63.08089
H         67.27350      106.46218       61.39427
H         66.21822      108.60527       62.14403
H         66.72428      108.27659       63.84154
N         70.58667      105.99408       62.19421
C         71.66797      105.18378       61.66972
H         72.58591      105.36861       62.26705
H         71.39777      104.11060       61.74943
H         71.89470      105.41306       60.60723
H         70.31715      105.84299       63.17784
Ca        80.44681      114.31852       57.30128
O         77.38029      113.96539       59.32619
H         76.40882      113.85985       59.48432
H         77.63011      114.76033       59.85973
O         79.46662      111.72079       59.86103
H         80.14248      111.57566       60.56982
H         78.61200      111.43868       60.27360

Ca 1.0



