%chk=apoCaM-CA-Ng.loop1.water3.frame765.chk
%nprocshared=20
%mem=10GB
%nosave
#b3lyp/svp scf=(tight,noincore,xqc) Test 
#IOP(5/87=12) Density=Current Pop=(MK,readradii) iop(6/33=2) iop(6/42=6)

apoCaM-CA-Ng.loop1.water3.frame765 

   0  1 
C         60.60250       23.94269       -7.49280
C         61.66598       24.99540       -7.40957
O         62.63019       24.93620       -8.15960
H         59.63097       24.41785       -7.74429
H         60.84827       23.19276       -8.27417
H         60.51344       23.42664       -6.51385
N         61.54442       26.00647       -6.50663
C         62.52927       27.07411       -6.37737
C         63.92523       26.54831       -6.06409
O         64.14741       25.94948       -5.02902
C         62.09374       28.18783       -5.38325
C         61.18205       27.82129       -4.22124
O         60.09767       28.38037       -4.16019
O         61.46801       26.92438       -3.25034
H         60.70380       26.01188       -5.91138
H         62.60405       27.58576       -7.36315
H         61.50355       28.91607       -5.98580
H         62.98171       28.76086       -5.04339
N         64.93498       26.77796       -6.95083
C         66.33055       26.38171       -6.75150
C         67.02590       27.09142       -5.58303
O         68.18811       26.78979       -5.34945
C         67.11745       26.56056       -8.07762
C         67.20327       28.01015       -8.60323
C         67.76158       28.02290      -10.03687
C         67.80271       29.42233      -10.67769
N         66.47008       30.01923      -10.81496
H         64.67713       27.23011       -7.83731
H         66.34689       25.29054       -6.53312
H         66.59075       25.94065       -8.83713
H         68.14651       26.15052       -7.97320
H         67.83318       28.62897       -7.92840
H         66.19556       28.45538       -8.63464
H         67.13063       27.37103      -10.68176
H         68.79130       27.60448      -10.02822
H         68.24527       29.31280      -11.69313
H         68.45920       30.09705      -10.08716
H         66.07120       30.26083       -9.88057
H         66.54876       30.90464      -11.36515
H         65.82707       29.36747      -11.32135
N         66.39634       28.01304       -4.78960
C         67.04321       28.66786       -3.64618
C         67.50866       27.64921       -2.60218
O         67.06632       26.51033       -2.66994
C         66.04791       29.65985       -2.97960
C         64.92752       28.95932       -2.24345
O         64.16219       28.21642       -2.83210
O         64.78244       29.13554       -0.91588
H         65.43015       28.27936       -5.00940
H         67.91029       29.22822       -4.05161
H         65.62410       30.34066       -3.74774
H         66.56697       30.29919       -2.24777
N         68.35075       27.94720       -1.56769
C         69.08888       29.18544       -1.36086
C         70.17783       29.38499       -2.38825
O         70.28575       28.60977       -3.32831
H         68.50877       27.20944       -0.86731
H         69.60915       29.10695       -0.38099
H         68.42835       30.06526       -1.29685
N         71.06779       30.40558       -2.23388
C         72.19198       30.60787       -3.14060
C         73.08707       29.37275       -3.18124
O         73.23534       28.80220       -4.25306
C         72.98846       31.90015       -2.81625
C         73.65674       31.94072       -1.46458
O         74.87120       32.03847       -1.38854
O         72.92786       31.90148       -0.33296
H         70.93274       31.04839       -1.44060
H         71.77689       30.76627       -4.16255
H         72.30500       32.77353       -2.88691
H         73.76745       32.02322       -3.60182
N         73.71376       28.89530       -2.06486
C         74.59204       27.73458       -2.09933
C         73.86754       26.41380       -2.29430
O         74.54649       25.41068       -2.46035
H         73.60440       29.38578       -1.16712
H         75.14789       27.66064       -1.14132
H         75.34161       27.88442       -2.90611
N         72.50833       26.31782       -2.23988
C         71.76847       25.07094       -2.40854
C         71.02640       24.76812       -1.12648
O         70.32765       25.64068       -0.63261
C         70.76102       25.19934       -3.57372
C         71.46596       25.52718       -4.89372
O         70.06300       23.98708       -3.71191
H         71.95484       27.16246       -2.04536
H         72.44697       24.22153       -2.64622
H         70.04386       26.01717       -3.33244
H         69.22919       24.18726       -4.21276
H         70.71873       25.60704       -5.71103
H         71.99816       26.49723       -4.82125
H         72.19549       24.73083       -5.15236
N         71.08963       23.53793       -0.54430
C         70.34270       23.23980        0.67168
C         71.04752       23.91288        1.83106
O         70.45532       24.78830        2.44495
C         70.11493       21.71191        0.85554
C         69.45266       21.06437       -0.39956
C         69.26336       21.43597        2.10958
C         68.12337       21.69173       -0.84477
H         71.63850       22.79529       -1.00274
H         69.32519       23.68131        0.58061
H         71.09409       21.20545        1.00013
H         69.28617       19.98342       -0.20142
H         70.14856       21.12552       -1.26168
H         68.27242       21.93201        2.04259
H         69.10542       20.34343        2.23479
H         69.77491       21.81014        3.02058
H         67.74063       21.14872       -1.73425
H         67.35620       21.63112       -0.04730
H         68.26096       22.75103       -1.14646
N         72.33072       23.57961        2.15923
C         73.11768       24.31724        3.14602
C         74.36332       23.53874        3.55233
O         75.17403       23.19078        2.70615
C         73.51250       25.73267        2.62116
C         74.22555       25.70666        1.26279
O         72.38120       26.55185        2.49474
H         72.77511       22.79253        1.66193
H         72.50894       24.44907        4.06723
H         74.21120       26.20693        3.35130
H         72.14732       26.86336        3.40822
H         74.46269       26.74560        0.95606
H         75.18022       25.14828        1.30038
H         73.57193       25.25405        0.48734
N         74.56707       23.23923        4.86758
C         75.73896       22.53420        5.37580
C         75.51296       22.20261        6.84573
O         75.46052       21.02602        7.17622
C         77.04860       23.35151        5.13167
C         78.29176       22.64894        5.68462
O         76.96867       24.63309        5.70151
H         73.84167       23.52158        5.54490
H         75.83060       21.56698        4.83094
H         77.22506       23.44884        4.03605
H         76.57653       25.23683        5.01750
H         79.19628       23.25234        5.45233
H         78.22714       22.53811        6.78793
H         78.40915       21.64658        5.22247
N         75.36829       23.18752        7.77906
C         75.14686       22.92992        9.19518
C         73.96444       23.74118        9.69155
O         73.92335       24.94054        9.44881
C         76.42360       23.28255        9.97568
C         76.30715       22.86578       11.45574
C         77.63550       22.96476       12.21626
C         78.15523       24.40070       12.35867
N         79.41659       24.41632       13.09888
H         75.45339       24.17068        7.48552
H         74.96518       21.84701        9.37409
H         76.65274       24.36509        9.87628
H         77.25861       22.70337        9.52279
H         76.00351       21.79610       11.49284
H         75.52387       23.46312       11.97123
H         78.39549       22.33785       11.70010
H         77.47858       22.54598       13.23447
H         77.40029       25.01244       12.90084
H         78.32384       24.85162       11.35795
H         79.74484       25.40364       13.19824
H         79.28276       24.00491       14.05126
H         80.14159       23.86944       12.57918
N         73.00165       23.16678       10.46696
C         71.89926       23.93772       11.02918
C         70.91854       24.37449        9.94512
O         70.74537       25.57619        9.80059
C         71.21991       23.18751       12.20002
C         70.15760       24.05296       12.89784
C         69.60527       23.35843       14.10897
O         69.02796       22.28862       13.99800
O         69.74003       23.91915       15.32629
H         73.10997       22.17619       10.73337
H         72.33722       24.84714       11.50393
H         72.01110       22.94449       12.94444
H         70.75800       22.23475       11.87902
H         69.32390       24.27524       12.19776
H         70.61624       25.01469       13.21658
N         70.21731       23.52052        9.13899
C         70.31052       22.07415        9.12633
H         71.06115       21.66888        9.82013
H         69.32114       21.63959        9.38128
H         70.59573       21.73807        8.10798
H         69.55800       23.93320        8.46070
Ca        63.08593       25.43695       -2.71893
O         62.35191       26.41555        0.04390
H         63.32080       26.52077       -0.13210
H         62.29117       25.61565        0.62420
O         63.87708       22.83368       -4.42427
H         63.58251       22.10114       -5.02170
H         64.81490       22.60951       -4.19893
O         65.27681       24.02817       -1.08782
H         65.75652       23.58913       -1.83442
H         65.91855       24.69619       -0.73833

Ca 1.0



