%chk=apoCaM-CA-Ng.loop2.water4.frame726.chk
%nprocshared=20
%mem=10GB
%nosave
#b3lyp/svp scf=(tight,noincore,xqc) Test 
#IOP(5/87=12) Density=Current Pop=(MK,readradii) iop(6/33=2) iop(6/42=6)

apoCaM-CA-Ng.loop2.water4.frame726 

   -2  1 
C         67.72754       89.04368       95.83075
C         66.94740       89.79987       94.79372
O         65.89098       90.33150       95.10446
H         68.73268       89.49774       95.95306
H         67.20397       89.05566       96.81055
H         67.84469       87.98638       95.50854
N         67.40463       89.85703       93.51306
C         66.67192       90.50975       92.43397
C         66.60969       92.01623       92.63059
O         67.64965       92.65804       92.65794
C         67.33581       90.18958       91.07950
C         66.57355       90.79160       89.93073
O         67.11665       91.59099       89.18530
O         65.28642       90.45419       89.72183
H         68.28502       89.36420       93.29316
H         65.64561       90.07971       92.40454
H         67.36300       89.08733       90.93913
H         68.38397       90.56435       91.07650
N         65.40575       92.65109       92.70874
C         65.27146       94.10258       92.79607
C         65.88168       94.62975       94.09213
O         65.64704       94.01541       95.12275
C         63.79835       94.50800       92.71232
H         64.54881       92.07905       92.65698
H         65.76823       94.52354       91.90104
H         63.36424       94.13663       91.75847
H         63.22014       94.08749       93.56106
H         63.70930       95.61593       92.72116
N         66.69180       95.73146       94.15865
C         66.90451       96.67835       93.07171
C         68.27131       96.55642       92.45004
O         69.09716       95.78510       92.91593
C         66.63177       98.11733       93.55876
C         67.54912       98.71213       94.61459
O         68.59508       98.08348       95.21262
O         67.32959       99.86709       94.94379
H         67.12963       95.94971       95.06533
H         66.17531       96.50634       92.25957
H         65.58980       98.16353       93.94421
H         66.67376       98.79875       92.68096
N         68.56155       97.30545       91.35307
C         69.86182       97.34897       90.72221
C         69.79705       96.91694       89.27749
O         68.75987       96.43550       88.83951
H         67.82977       97.91190       90.95007
H         70.60578       96.72765       91.25933
H         70.18653       98.40740       90.76626
N         70.85057       97.09743       88.43128
C         72.10917       97.73851       88.82741
C         72.92778       96.87000       89.78406
O         72.58804       95.70966       89.97036
C         72.91585       98.18601       87.58105
C         73.38663       97.08027       86.65673
N         74.70203       96.93005       86.37998
O         72.57768       96.34268       86.11456
H         70.69490       96.84422       87.44554
H         71.85272       98.68223       89.35134
H         73.78939       98.78002       87.92276
H         72.27228       98.87083       86.98552
H         75.40733       97.55102       86.80100
H         75.01527       96.19797       85.72496
N         74.02854       97.37781       90.42633
C         74.88851       96.57352       91.29384
C         75.12106       97.11450       92.70583
O         75.85517       96.45682       93.43070
H         74.30065       98.35529       90.24723
H         75.88425       96.50571       90.80615
H         74.50096       95.53755       91.38586
N         74.59607       98.28686       93.17375
C         74.92812       98.82063       94.50607
C         74.40196       97.96476       95.65888
O         73.19966       97.78452       95.79222
C         74.43661      100.27715       94.69128
C         75.24960      101.24774       93.82675
O         73.06762      100.37402       94.39494
H         74.00495       98.84858       92.54435
H         76.03671       98.86149       94.59343
H         74.61117      100.56638       95.75531
H         72.76416      101.26382       94.71339
H         75.15224      101.00990       92.74842
H         74.90815      102.28904       94.00485
H         76.32289      101.19126       94.11449
N         75.28459       97.45358       96.56863
C         74.90380       96.70779       97.76935
C         74.21480       97.63671       98.75686
O         74.84113       98.58888       99.20284
C         76.17271       96.08088       98.44488
C         75.83055       95.39814       99.80304
C         76.83714       95.08009       97.47480
C         77.04805       94.83999      100.54442
H         76.28774       97.62330       96.40482
H         74.22701       95.87193       97.48452
H         76.89668       96.90013       98.65683
H         75.09913       94.58601       99.65218
H         75.36640       96.13785      100.48858
H         77.10381       95.55891       96.51159
H         77.78656       94.68747       97.88748
H         76.15219       94.23213       97.26307
H         77.78271       95.64971      100.74010
H         76.72270       94.41407      101.51715
H         77.53729       94.02414       99.97631
N         72.94213       97.38666       99.17959
C         72.27560       98.16612      100.21644
C         71.85326       97.31076      101.41075
O         71.31706       97.89287      102.34520
C         71.09397       98.95243       99.61126
C         70.03260       98.08570       98.99935
O         69.32416       97.23559       99.76285
O         69.78118       98.17966       97.81004
H         72.42467       96.60725       98.75596
H         72.96927       98.93223      100.62669
H         71.50159       99.63239       98.83068
H         70.62142       99.58715      100.39219
N         72.05228       95.95346      101.48534
C         71.65447       95.19651      102.67143
C         71.34502       93.73184      102.32662
O         72.02979       92.84309      102.81936
C         72.74012       95.33985      103.77279
C         72.14670       95.14645      105.14951
C         72.41123       94.00736      105.92738
C         71.31374       96.15442      105.67128
C         71.83580       93.87856      107.19965
C         70.75579       96.02901      106.94390
C         71.01221       94.88945      107.70714
H         72.49812       95.44566      100.70808
H         70.71492       95.63943      103.06427
H         73.17840       96.36160      103.77378
H         73.58475       94.64702      103.56153
H         73.04657       93.21719      105.54905
H         71.10912       97.04793      105.09388
H         72.02777       92.99630      107.79600
H         70.12566       96.81745      107.33625
H         70.57322       94.79311      108.69202
N         70.30497       93.38625      101.50335
C         69.92368       92.01441      101.17512
C         70.99010       91.22979      100.44068
O         71.00720       90.01204      100.53772
C         68.73128       92.18996      100.22628
C         68.11965       93.47503      100.72800
C         69.36091       94.33028      100.94534
H         69.61660       91.50358      102.11592
H         69.09607       92.40896       99.19414
H         68.05241       91.31193      100.17810
H         67.35992       93.92803      100.05821
H         67.65495       93.26752      101.71924
H         69.77104       94.70089       99.98109
H         69.09836       95.16827      101.62066
N         71.86141       91.87591       99.61580
C         72.86681       91.20274       98.81167
C         73.78155       90.41156       99.73107
O         73.92881       89.21376       99.52596
C         73.68666       92.19953       97.94479
C         72.97291       92.83395       96.71337
C         71.96953       93.96277       96.87723
O         71.42629       94.50026       95.76095
O         71.68417       94.43188       97.96118
H         71.81568       92.89382       99.58677
H         72.37741       90.49187       98.10807
H         74.50408       91.58800       97.49862
H         74.16841       92.97212       98.56522
H         72.49414       92.01759       96.13255
H         73.77731       93.26719       96.07962
N         74.37597       91.00736      100.80318
C         75.19365       90.29075      101.76275
H         76.19284       90.76715      101.82907
H         74.70745       90.33392      102.76096
H         75.32976       89.22159      101.49347
H         74.20831       92.00976      100.97776
Ca        69.90189       96.21240       95.54957
O         67.64379       95.34064       97.58337
H         68.59065       95.52399       97.80292
H         67.62611       94.37439       97.37048
O         69.18520       93.30660       94.82753
H         69.57571       92.67843       95.48411
H         68.27792       93.48886       95.17345
O         70.81683       98.35582       93.47123
H         70.72168       99.30485       93.20708
H         71.79084       98.20748       93.54570
O         72.76965       95.38261       93.53982
H         72.89531       94.51604       93.07876
H         73.41543       95.35626       94.29060

Ca 1.0



