%chk=apoCaM-CA-Ng.loop4.water3.frame344.chk
%nprocshared=20
%mem=10GB
%nosave
#b3lyp/svp scf=(tight,noincore,xqc) Test 
#IOP(5/87=12) Density=Current Pop=(MK,readradii) iop(6/33=2) iop(6/42=6)

apoCaM-CA-Ng.loop4.water3.frame344 

   -3  1 
C         73.56485       73.93596       37.95995
C         73.99840       72.94502       36.92452
O         74.97152       73.22121       36.24139
H         72.68103       73.57519       38.52397
H         74.40015       74.11132       38.67101
H         73.30813       74.89586       37.46351
N         73.34206       71.75652       36.76173
C         73.72752       70.75060       35.77694
C         75.14978       70.30185       35.99564
O         76.00667       70.61524       35.19147
C         73.33373       71.13436       34.32422
C         73.62297       72.53143       33.83060
O         74.84801       72.99696       33.51031
O         72.67373       73.27479       33.63585
H         72.55172       71.53595       37.38581
H         73.12363       69.82909       35.94644
H         72.22267       71.04689       34.30931
H         73.70976       70.37723       33.60183
N         75.43235       69.53819       37.09677
C         76.71605       68.94365       37.47807
C         77.11912       67.81500       36.52616
O         77.11849       66.67255       36.96541
C         77.81018       70.01187       37.72792
C         79.14724       69.40656       38.23688
C         77.29757       71.08595       38.70431
C         79.07846       68.70917       39.60131
H         74.64865       69.34556       37.74076
H         76.53301       68.45352       38.46085
H         78.03208       70.51727       36.77157
H         79.89009       70.22637       38.32034
H         79.53538       68.68333       37.48872
H         78.09395       71.82315       38.90319
H         76.42774       71.62682       38.27694
H         76.98216       70.64167       39.67062
H         78.39273       67.83893       39.57784
H         80.08926       68.33959       39.87357
H         78.75653       69.41237       40.39648
N         77.43205       68.02944       35.21526
C         77.64635       66.94554       34.27017
C         79.04412       66.35174       34.40025
O         79.11455       65.15196       34.62654
C         77.28215       67.39078       32.83664
C         77.29831       66.24171       31.86691
O         78.02741       66.27197       30.88890
O         76.48723       65.18313       32.05988
H         77.44421       68.97825       34.84009
H         76.89275       66.15278       34.49066
H         77.94972       68.18823       32.47859
H         76.24962       67.80523       32.84447
N         80.21365       67.05931       34.29286
C         80.31979       68.50553       34.09190
C         81.76219       69.00771       34.07863
O         82.66616       68.19689       34.22420
H         81.07867       66.50806       34.39657
H         79.80208       69.00691       34.92742
H         79.86642       68.76968       33.12884
N         82.11321       70.32526       33.92362
C         81.24039       71.48148       33.71619
C         80.30809       71.68856       34.89786
O         79.13625       71.37541       34.77034
C         80.56085       71.47321       32.33077
C         80.08892       72.86337       31.97131
O         80.75809       73.52423       31.19216
O         78.97594       73.42608       32.48601
H         83.12367       70.53704       33.95372
H         81.89565       72.37094       33.62323
H         79.75856       70.72934       32.20001
H         81.36743       71.21738       31.60637
N         80.72633       72.18511       36.10225
C         82.04576       72.74371       36.36270
C         82.83235       71.96341       37.37366
O         82.35703       70.97046       37.90525
H         80.04351       72.22833       36.87442
H         81.92135       73.78953       36.71887
H         82.67750       72.78475       35.46473
N         84.10620       72.36104       37.64789
C         84.97702       71.65590       38.57920
C         84.48740       71.74533       40.00943
O         84.95691       70.95400       40.81626
C         86.41238       72.23675       38.52616
C         87.16092       71.90547       37.22112
C         87.56044       70.44661       37.11415
N         88.26229       70.01583       36.04218
O         87.27963       69.65214       38.00062
H         84.47516       73.18116       37.14045
H         84.98829       70.58258       38.29333
H         87.03224       71.85575       39.36722
H         86.34186       73.34150       38.64930
H         88.09999       72.49927       37.20532
H         86.55203       72.20291       36.34035
H         88.52321       70.66595       35.28717
H         88.55298       69.02889       35.97276
N         83.62270       72.71670       40.42326
C         83.20987       72.85875       41.81784
C         83.81643       74.10025       42.46058
O         83.64414       74.27249       43.65889
C         81.66363       72.84657       41.94528
C         81.07665       71.55123       41.36680
C         81.00288       74.06519       41.27812
H         83.28961       73.41303       39.74132
H         83.59917       72.00395       42.41375
H         81.41079       72.87912       43.02833
H         79.97742       71.52555       41.52133
H         81.27568       71.47884       40.27737
H         81.52195       70.66750       41.87067
H         81.18267       74.08201       40.18377
H         79.90735       74.03185       41.44981
H         81.38543       75.01105       41.71675
N         84.54527       74.99963       41.73726
C         85.19756       76.16542       42.31431
C         84.58055       77.43144       41.75874
O         84.18292       78.28495       42.54003
C         86.70550       76.12833       41.99112
C         87.36299       74.85777       42.47184
N         87.37500       74.52965       43.78462
O         87.89455       74.11489       41.65980
H         84.67055       74.85798       40.72729
H         85.08728       76.18467       43.42141
H         87.21005       76.99999       42.46332
H         86.84863       76.20552       40.89123
H         86.93798       75.14127       44.48843
H         87.82536       73.65717       44.09898
N         84.46987       77.61923       40.41198
C         83.98465       78.85340       39.80113
C         82.70544       78.59112       39.02766
O         82.34126       77.43650       38.89097
C         85.05821       79.34383       38.80101
C         86.44978       79.27918       39.38173
C         87.35288       78.31747       38.89125
C         86.84935       80.12859       40.42280
C         88.62818       78.19850       39.43987
C         88.13547       80.01464       40.96492
C         89.02526       79.04692       40.48040
O         90.25411       78.93638       41.02299
H         84.77095       76.86592       39.77543
H         83.79391       79.62110       40.58257
H         84.83004       80.35750       38.40778
H         85.02932       78.64568       37.93439
H         87.06361       77.63995       38.09647
H         86.16698       80.87271       40.81334
H         89.30167       77.44086       39.05864
H         88.43865       80.67337       41.76798
H         90.88851       78.26975       40.72161
N         82.04089       79.62204       38.42146
C         80.92766       79.51804       37.46983
C         79.58650       79.06336       38.04559
O         78.64163       79.83860       37.97769
C         81.30765       78.65661       36.24069
C         82.57961       79.14317       35.52460
C         82.44070       80.54327       34.99771
O         83.27093       81.51154       35.43013
O         81.58000       80.80897       34.17386
H         82.41683       80.57157       38.56856
H         80.74453       80.54948       37.08997
H         80.46444       78.66480       35.51482
H         81.46521       77.60149       36.54692
H         82.79700       78.46440       34.67266
H         83.44010       79.09427       36.22209
N         79.38945       77.80604       38.53374
C         78.07659       77.27207       38.88504
C         77.40469       77.99652       40.04679
O         76.24745       77.69578       40.30812
C         78.16732       75.76220       39.23535
C         78.88925       74.85547       38.21226
C         78.26960       74.85682       36.84690
O         78.27571       75.86972       36.16740
O         77.76006       73.71973       36.33922
H         80.17754       77.16813       38.56138
H         77.42452       77.38936       37.99231
H         77.13861       75.36603       39.38844
H         78.71446       75.66370       40.19689
H         78.86953       73.82959       38.61885
H         79.96110       75.11315       38.10986
N         78.04884       78.93761       40.79753
C         77.42222       79.63593       41.90292
H         76.36732       79.32731       42.06183
H         77.98891       79.43150       42.83496
H         77.43771       80.72754       41.70298
H         79.03046       79.17582       40.60286
Ca        77.06087       72.54844       33.33456
O         76.75613       70.44261       31.25252
H         77.49798       70.38641       31.90396
H         75.94016       70.42452       31.81279
O         75.95127       75.72061       34.25389
H         75.06879       75.74531       34.70204
H         76.35037       76.60647       34.44357
O         76.46201       74.73374       31.17374
H         77.35331       74.67578       30.74664
H         76.05286       73.84654       31.01255

Ca 1.0



