%chk=apoCaM-CA-Ng.loop3.water3.frame772.chk
%nprocshared=20
%mem=10GB
%nosave
#b3lyp/svp scf=(tight,noincore,xqc) Test 
#IOP(5/87=12) Density=Current Pop=(MK,readradii) iop(6/33=2) iop(6/42=6)

apoCaM-CA-Ng.loop3.water3.frame772 

   0  1 
C         91.58357       71.60726       16.25297
C         92.48353       70.95175       17.25965
O         93.58028       70.55077       16.90056
H         90.63258       71.94612       16.71672
H         92.09758       72.50058       15.83693
H         91.35125       70.90116       15.43119
N         92.10244       70.85702       18.56237
C         92.99671       70.38062       19.61532
C         93.26967       68.87398       19.49313
O         92.54458       68.20984       18.76501
C         92.36636       70.77819       20.97494
C         93.28657       70.87229       22.15003
O         92.81170       71.10356       23.24964
O         94.61976       70.80349       22.02608
H         91.17934       71.24053       18.82139
H         93.93614       70.92663       19.48765
H         91.53049       70.07738       21.19300
H         91.93766       71.80200       20.89861
N         94.29477       68.26562       20.17219
C         94.52870       66.81754       20.15896
C         94.34383       66.18665       21.54165
O         94.21609       64.96974       21.57461
C         95.92813       66.45008       19.59891
C         96.03417       66.51436       18.06538
C         97.43623       66.05980       17.60792
C         97.51204       65.84438       16.08855
N         98.84942       65.40014       15.68774
H         94.93148       68.84459       20.73119
H         93.76270       66.31558       19.52795
H         96.14089       65.38935       19.86017
H         96.70918       67.07555       20.07536
H         95.81885       67.53502       17.68294
H         95.27938       65.81063       17.64968
H         97.68527       65.08820       18.08934
H         98.18941       66.81350       17.92728
H         97.25856       66.78480       15.55329
H         96.77342       65.06313       15.79825
H         99.55433       66.14256       15.90098
H         99.10685       64.51808       16.18868
H         98.85713       65.21181       14.65898
N         94.31096       66.89959       22.71105
C         94.00074       66.27911       24.00733
C         92.79555       66.91874       24.69746
O         92.30015       66.31158       25.63672
C         95.24206       66.19749       24.93277
C         95.99303       67.49075       25.04659
O         95.39298       68.60909       25.47305
O         97.13980       67.55756       24.63511
H         94.51419       67.90647       22.68915
H         93.68519       65.22542       23.84463
H         95.93953       65.45140       24.49187
H         94.94842       65.82736       25.93819
N         92.25402       68.10995       24.30464
C         91.02473       68.65420       24.86707
C         91.23099       69.84022       25.78846
O         90.22896       70.37418       26.24344
H         92.70036       68.65431       23.56171
H         90.48168       67.88601       25.45799
H         90.35893       68.94081       24.02392
N         92.46924       70.27496       26.16962
C         92.66541       71.29201       27.20442
C         93.94330       72.09917       26.98495
O         94.72273       71.80419       26.09143
C         92.75482       70.59916       28.58854
C         91.47881       69.90823       28.99921
N         90.35131       70.62141       29.23051
O         91.46937       68.69567       29.14999
H         93.29241       69.76628       25.82893
H         91.82267       72.01844       27.18704
H         92.98929       71.33216       29.38817
H         93.58592       69.85942       28.55313
H         90.34540       71.64669       29.12830
H         89.48406       70.14911       29.52667
N         94.21233       73.15036       27.81011
C         95.42978       73.94606       27.78625
C         95.66499       74.65372       26.47203
O         94.74624       75.26098       25.94080
H         93.51703       73.39646       28.53133
H         96.30293       73.31084       28.05185
H         95.34006       74.72619       28.57245
N         96.92014       74.68442       25.93602
C         97.25572       75.38728       24.69653
C         96.68995       74.65692       23.49092
O         96.01532       73.65404       23.67477
C         98.79300       75.53445       24.57145
C         99.37485       76.35266       25.70290
C         98.96624       77.68459       25.90475
C        100.34044       75.79848       26.55890
C         99.50547       78.44090       26.94849
C        100.88254       76.55951       27.59985
C        100.46670       77.88016       27.80028
O        100.99727       78.59928       28.80993
H         97.68233       74.23180       26.46471
H         96.81959       76.40873       24.72028
H         99.06108       76.05971       23.63238
H         99.25400       74.52288       24.53335
H         98.23011       78.14227       25.25641
H        100.67663       74.77874       26.42044
H         99.17651       79.46275       27.09218
H        101.62767       76.12157       28.25159
H        100.73543       79.51517       28.98217
N         96.92793       75.11615       22.22014
C         96.41848       74.49867       20.99532
C         96.98077       73.08414       20.81841
O         96.84914       72.26782       21.71470
C         94.85973       74.55678       20.95803
C         94.26256       73.92697       19.67596
C         94.36006       76.00490       21.12762
C         94.62117       74.60284       18.35030
H         97.48774       75.97234       22.10038
H         96.77186       75.11041       20.13726
H         94.45653       73.96469       21.80652
H         93.15390       73.91246       19.76593
H         94.61554       72.88926       19.61958
H         93.25007       76.03597       21.11197
H         94.69471       76.42736       22.09789
H         94.74954       76.65970       20.31991
H         95.71323       74.59405       18.17297
H         94.14030       74.04046       17.52135
H         94.24949       75.64601       18.31610
N         97.56989       72.70480       19.64651
C         98.05189       71.34330       19.40561
C         99.40582       71.28740       18.70699
O         99.85882       70.18231       18.43656
C         97.01429       70.59302       18.56324
O         96.83930       71.22793       17.32704
H         97.56551       73.37068       18.86126
H         98.14739       70.79043       20.36343
H         96.06018       70.58373       19.12208
H         97.34168       69.53953       18.41103
H         96.17822       70.68095       16.83094
N        100.09926       72.40743       18.34547
C        101.33236       72.34497       17.56096
C        102.44198       71.60564       18.29284
O        102.30474       71.38750       19.48902
C        101.78432       73.76445       17.22658
H         99.72311       73.33479       18.58482
H        101.09680       71.79640       16.62228
H        102.71930       73.74941       16.65303
H        100.99934       74.28010       16.63195
H        101.96861       74.34090       18.15773
N        103.55413       71.10768       17.66937
C        103.86390       71.16289       16.23774
C        105.34320       71.48315       16.03219
O        106.14856       70.94891       16.78295
C        103.58936       69.78355       15.63685
H        104.19076       70.54627       18.25792
H        103.20754       71.85153       15.67940
H        104.20615       69.00149       16.12831
H        102.51588       69.52763       15.76765
H        103.81299       69.78923       14.54784
N        105.83791       72.22587       14.99714
C        105.06022       72.85322       13.93534
C        104.29591       74.04575       14.46687
O        103.09644       74.13229       14.24346
C        106.00416       73.28912       12.78716
C        105.23258       73.78387       11.55270
C        106.17130       74.10375       10.42419
O        106.09100       73.49634        9.36797
O        107.10170       75.06658       10.56820
H        106.86740       72.28921       14.92999
H        104.37151       72.09799       13.49444
H        106.59847       72.40091       12.47502
H        106.71263       74.07181       13.13904
H        104.64577       74.69347       11.79950
H        104.52816       72.98744       11.22389
N        104.93879       75.01166       15.18162
C        104.26153       76.17972       15.70297
H        103.43758       75.88601       16.38229
H        104.97568       76.80200       16.28284
H        103.85066       76.78388       14.86826
H        105.94643       74.90995       15.37641
Ca        95.65811       70.18180       23.90509
O         98.87102       71.22227       23.52683
H         99.34668       71.88454       24.08788
H         99.28910       71.30793       22.63332
O         97.59635       70.82802       26.36151
H         97.26675       70.11660       26.96609
H         97.96657       71.51772       26.96735
O         97.63035       68.80745       21.96967
H         98.42472       68.46499       21.48862
H         97.07604       68.00547       22.13604

Ca 1.0



