%chk=apoCaM-CA-Ng.loop3.water5.frame428.chk
%nprocshared=20
%mem=10GB
%nosave
#b3lyp/svp scf=(tight,noincore,xqc) Test 
#IOP(5/87=12) Density=Current Pop=(MK,readradii) iop(6/33=2) iop(6/42=6)

apoCaM-CA-Ng.loop3.water5.frame428 

   0  1 
C         75.35875       41.56996       85.21829
C         74.68328       40.25442       84.96978
O         73.67069       39.98936       85.60311
H         76.26047       41.69079       84.58282
H         74.65110       42.39497       84.98944
H         75.66047       41.63708       86.28439
N         75.18240       39.37113       84.05541
C         74.53789       38.08869       83.77605
C         73.14065       38.31822       83.21108
O         72.82317       39.44395       82.84687
C         75.41759       37.26715       82.80540
C         74.91197       35.87306       82.56710
O         74.61728       35.51038       81.43945
O         74.79888       35.01034       83.59538
H         76.05052       39.61791       83.55487
H         74.45688       37.54302       84.74280
H         76.43892       37.17641       83.23488
H         75.49799       37.81258       81.83856
N         72.22729       37.30556       83.15266
C         70.86146       37.53157       82.69840
C         70.20110       38.54144       83.61600
O         70.11001       38.28392       84.80908
C         70.04552       36.21965       82.70162
C         68.63132       36.43799       82.13093
C         67.78999       35.15760       82.19680
C         66.40305       35.31712       81.54561
N         65.58272       36.34228       82.19616
H         72.49523       36.36507       83.47599
H         70.89664       37.90774       81.65113
H         69.97845       35.82785       83.74113
H         70.56705       35.46131       82.07734
H         68.71824       36.77396       81.07433
H         68.11804       37.22729       82.71743
H         67.66765       34.85046       83.25879
H         68.32509       34.34533       81.65857
H         65.87750       34.33905       81.61570
H         66.52041       35.56487       80.46744
H         65.49269       36.14241       83.21853
H         65.99041       37.29301       82.04989
H         64.62986       36.33537       81.76565
N         69.71344       39.71093       83.11836
C         69.05711       40.71195       83.94524
C         67.61883       40.82551       83.48915
O         67.39139       40.99539       82.29911
C         69.81293       42.04974       83.84368
C         69.39356       42.98069       84.94836
O         68.84998       44.17929       84.68711
O         69.56867       42.65249       86.11121
H         69.79553       39.89417       82.10588
H         69.08159       40.39917       85.01196
H         69.66866       42.50520       82.83873
H         70.90119       41.86748       83.98303
N         66.58773       40.67919       84.36838
C         65.20242       40.60364       83.93075
C         64.67817       41.83424       83.21449
O         63.59845       41.72991       82.64897
H         66.79113       40.54037       85.36962
H         64.53967       40.38970       84.79736
H         65.12802       39.74289       83.23160
N         65.33798       43.02995       83.20972
C         64.84279       44.20936       82.49637
C         65.89205       44.82709       81.56691
O         65.58166       45.81753       80.92151
C         64.23367       45.20263       83.50649
C         65.17232       45.74681       84.54500
N         64.67356       46.45270       85.58355
O         66.37226       45.54461       84.47149
H         66.19262       43.12579       83.77670
H         63.99105       43.92672       81.83898
H         63.43235       44.64907       84.04437
H         63.75349       46.05288       82.97547
H         63.66092       46.62832       85.66251
H         65.29866       46.80634       86.32068
N         67.12540       44.26288       81.39125
C         68.10056       44.73919       80.42413
C         68.68825       46.07492       80.79484
O         68.57449       47.01128       80.01579
H         67.37720       43.41163       81.90241
H         67.63357       44.77037       79.41510
H         68.94520       44.01700       80.37874
N         69.37027       46.21850       81.96551
C         70.03517       47.44864       82.37296
C         69.35545       48.00500       83.60555
O         69.36953       47.36459       84.64656
C         71.52691       47.16663       82.64847
C         72.23303       48.37688       83.21544
C         72.35012       49.56143       82.47012
C         72.75995       48.33125       84.51717
C         72.97506       50.68354       83.02480
C         73.37869       49.45280       85.07065
C         73.48520       50.63566       84.32710
O         74.06787       51.73029       84.85559
H         69.42640       45.40762       82.59808
H         69.96870       48.20714       81.56286
H         72.03151       46.83450       81.71554
H         71.59048       46.32736       83.37717
H         71.95186       49.61928       81.46530
H         72.68108       47.43147       85.11156
H         73.05333       51.59447       82.44558
H         73.76708       49.40223       86.08016
H         74.41611       51.74040       85.75881
N         68.71242       49.20121       83.53464
C         67.98253       49.80080       84.64043
C         66.51009       49.55973       84.39176
O         65.86175       48.96989       85.23863
C         68.33463       51.31415       84.76741
C         69.84383       51.56527       85.01918
C         67.48455       52.01013       85.84365
C         70.39176       50.99110       86.32983
H         68.67329       49.68117       82.62196
H         68.22921       49.29922       85.60088
H         68.09127       51.81050       83.80140
H         70.02179       52.66345       85.02509
H         70.42861       51.14276       84.17717
H         67.75140       53.08587       85.91392
H         66.41629       51.96277       85.56496
H         67.61365       51.53496       86.83804
H         71.46477       51.25785       86.42372
H         69.86574       51.41732       87.20805
H         70.31093       49.88581       86.34659
N         65.92227       49.95323       83.23030
C         64.52606       49.67706       82.90977
C         63.59030       50.31325       83.91770
O         62.69924       49.63464       84.40962
C         64.20225       50.15868       81.48717
O         64.41204       51.54042       81.36800
H         66.50018       50.44465       82.53246
H         64.35880       48.57565       82.90972
H         63.14487       49.91978       81.23998
H         64.86487       49.60126       80.78290
H         64.63769       51.71252       80.41721
N         63.76894       51.60833       84.30207
C         62.91907       52.32166       85.24581
C         62.73872       51.55641       86.55310
O         61.61301       51.37752       86.99822
C         61.58110       52.66462       84.57641
H         64.57738       52.12408       83.92196
H         63.42164       53.28605       85.48182
H         60.95655       53.28393       85.25422
H         61.76614       53.24444       83.64662
H         61.02330       51.74161       84.31124
N         63.81995       51.04457       87.20455
C         63.73255       50.29749       88.45191
C         64.68219       50.89756       89.46138
O         65.87124       50.97004       89.18264
C         64.09376       48.83419       88.20622
H         64.74830       51.15483       86.77764
H         62.69488       50.30723       88.85206
H         63.38724       48.39622       87.46972
H         65.12897       48.74088       87.81800
H         64.01065       48.25896       89.15366
N         64.22346       51.34971       90.66294
C         65.07390       51.94547       91.68708
C         65.72284       53.20596       91.14203
O         66.94186       53.32313       91.14245
C         66.11421       50.92567       92.22756
C         65.48675       49.62663       92.75868
C         64.57781       49.86928       93.92880
O         63.40124       49.55026       93.86919
O         65.06112       50.42649       95.05566
H         63.21524       51.28002       90.86819
H         64.42753       52.25150       92.53938
H         66.70634       51.40170       93.04024
H         66.82731       50.64691       91.42397
H         66.30036       48.94469       93.08675
H         64.93157       49.12019       91.93871
N         64.94246       54.19815       90.63483
C         65.50260       55.40842       90.07558
H         66.17010       55.15784       89.22322
H         64.68780       56.06621       89.70561
H         66.07952       55.95400       90.85178
H         63.91704       54.08575       90.63232
Ca        68.30967       45.45015       86.48210
O         68.68121       43.67628       88.95206
H         69.32819       44.11403       89.56021
H         67.88730       43.49973       89.51668
O         68.70357       48.02784       87.93864
H         68.12988       48.74729       88.30354
H         69.37105       47.85316       88.64852
O         71.27608       45.81632       86.66646
H         71.25293       46.68336       87.14438
H         71.38198       45.14006       87.38135
O         66.30716       43.16795       86.58102
H         65.32659       43.06291       86.49604
H         66.58501       42.44536       87.19781
O         66.21924       45.72781       88.72591
H         65.30659       45.41637       88.50139
H         66.08487       46.61068       89.15276

Ca 1.0



