%chk=apoCaM-CA-Ng.loop1.water3.frame214.chk
%nprocshared=20
%mem=10GB
%nosave
#b3lyp/svp scf=(tight,noincore,xqc) Test 
#IOP(5/87=12) Density=Current Pop=(MK,readradii) iop(6/33=2) iop(6/42=6)

apoCaM-CA-Ng.loop1.water3.frame214 

   0  1 
C         16.00280        5.78671       68.49675
C         15.27782        6.05472       69.78479
O         15.37143        5.24446       70.69535
H         17.09277        5.70965       68.68816
H         15.63916        4.83273       68.05999
H         15.83045        6.59568       67.75492
N         14.51926        7.17680       69.92737
C         13.76070        7.48464       71.13692
C         12.79261        6.35805       71.47927
O         12.82354        5.86029       72.59120
C         13.05055        8.86117       71.03082
C         12.03515        9.00470       69.92828
O         10.74967        9.26878       70.23057
O         12.37403        8.94137       68.75793
H         14.48582        7.83490       69.13589
H         14.47200        7.58736       71.98372
H         13.81789        9.65416       70.89277
H         12.54030        9.05699       71.99349
N         11.92780        5.87892       70.55434
C         10.98129        4.79217       70.80883
C         11.66920        3.47734       71.15221
O         12.56267        3.09915       70.40699
C         10.13048        4.58447       69.53634
C          9.09941        5.71603       69.42050
C          8.36281        5.75736       68.07912
C          9.21997        6.27171       66.90560
N          9.65628        7.65720       67.10735
H         11.95122        6.30867       69.61690
H         10.32697        5.09141       71.63816
H          9.56329        3.62893       69.57522
H         10.81188        4.52349       68.65958
H          9.55047        6.70572       69.62810
H          8.34840        5.52581       70.21311
H          7.49704        6.44581       68.18546
H          7.96619        4.74491       67.84943
H          8.59099        6.23339       65.99009
H         10.10336        5.61980       66.73747
H          8.83790        8.27366       67.31993
H         10.35018        7.71318       67.88193
H         10.12174        8.00461       66.23874
N         11.27816        2.64039       72.17414
C         10.19374        2.81384       73.15565
C          8.87749        3.27865       72.53550
O          8.40504        4.35409       72.87516
C         10.63022        3.69366       74.34606
C         11.76529        3.10416       75.13971
O         12.34111        2.08881       74.77988
O         12.15564        3.70876       76.27228
H         11.76636        1.73128       72.22376
H          9.98927        1.82074       73.60755
H          9.77114        3.77958       75.04581
H         10.91039        4.71068       74.00749
N          8.20478        2.54276       71.61348
C          8.56949        1.17783       71.29232
C          7.80932        0.62108       70.11101
O          7.16057        1.37362       69.39792
H          7.36265        2.96019       71.18824
H          8.37684        0.57738       72.19460
H          9.64245        1.10177       71.03004
N          7.89262       -0.69632       69.77377
C          8.55001       -1.70532       70.60589
C          7.74604       -1.98619       71.87771
O          6.62340       -1.51501       72.00596
C          8.78922       -3.02021       69.81777
C          7.53778       -3.71362       69.33086
O          7.24238       -4.94979       69.77371
O          6.81161       -3.19117       68.50083
H          7.46248       -0.97144       68.88153
H          9.55590       -1.32409       70.88831
H          9.34326       -3.72678       70.47215
H          9.44110       -2.80762       68.94359
N          8.26939       -2.78041       72.85657
C          7.53759       -3.19971       74.04346
C          7.19049       -2.11072       75.04092
O          6.55622       -2.45578       76.02780
H          9.21479       -3.16933       72.72615
H          8.14982       -3.94848       74.59142
H          6.59948       -3.70261       73.72146
N          7.54083       -0.79976       74.87977
C          7.15787        0.23911       75.83515
C          6.15063        1.18034       75.18934
O          5.95010        1.13228       73.98388
C          8.40772        1.01939       76.32472
C          9.49739        0.10693       76.88904
O          8.04897        1.95006       77.31260
H          8.07447       -0.51448       74.05284
H          6.65552       -0.22037       76.71379
H          8.82201        1.55065       75.44540
H          8.73102        2.67279       77.29657
H         10.37413        0.72599       77.17363
H          9.12785       -0.43314       77.78562
H          9.83775       -0.62419       76.12725
N          5.44772        2.04424       75.97064
C          4.47264        3.01006       75.46881
C          4.86739        4.43433       75.83832
O          4.14092        5.34542       75.46112
C          3.04597        2.68263       76.00968
C          3.02596        2.56773       77.55951
C          2.50991        1.40951       75.33315
C          1.62366        2.46546       78.15617
H          5.60675        2.00641       76.98694
H          4.43226        2.99046       74.35679
H          2.37015        3.51279       75.70346
H          3.50041        3.47063       78.00038
H          3.60214        1.67505       77.88472
H          1.46020        1.20985       75.62713
H          2.51161        1.54167       74.22934
H          3.13434        0.52808       75.58773
H          1.03094        3.36675       77.89459
H          1.09507        1.55653       77.80690
H          1.70494        2.40325       79.26240
N          5.99060        4.71299       76.56177
C          6.38899        6.05572       76.94524
C          7.73425        6.36569       76.30668
O          8.73999        5.77076       76.66780
C          6.34618        6.21470       78.48886
C          7.16539        5.16516       79.26285
O          5.00511        6.11881       78.89912
H          6.61299        3.95308       76.85373
H          5.66002        6.79693       76.54972
H          6.72939        7.23398       78.72735
H          4.94265        6.53767       79.79729
H          8.23773        5.19267       78.99286
H          7.08494        5.36191       80.35262
H          6.76856        4.14240       79.08744
N          7.79279        7.24313       75.26510
C          9.01587        7.53275       74.51572
C         10.03478        8.30611       75.34720
O          9.72152        8.69588       76.46352
C          8.67362        8.27115       73.18690
C          7.98571        9.63074       73.37058
O          7.82555        7.46847       72.41116
H          6.90407        7.65004       74.94238
H          9.47876        6.56465       74.23085
H          9.61260        8.45891       72.61815
H          8.39066        6.74397       72.04717
H          7.82463       10.09341       72.37292
H          6.99283        9.53387       73.85208
H          8.59523       10.31533       73.98441
N         11.28295        8.57200       74.84619
C         12.28328        9.36883       75.56178
C         13.58919        8.61886       75.82089
O         14.44316        9.19242       76.48431
C         12.60986       10.65254       74.76079
C         11.35849       11.47760       74.44280
C         11.69550       12.76478       73.68280
C         10.41327       13.53865       73.34109
N         10.71877       14.77596       72.62437
H         11.51767        8.23019       73.90362
H         11.88237        9.67483       76.55219
H         13.10905       10.38017       73.80620
H         13.31450       11.28004       75.34976
H         10.83334       11.73459       75.38893
H         10.69584       10.86686       73.80175
H         12.22778       12.50956       72.73984
H         12.35857       13.40113       74.30851
H          9.86416       13.78525       74.27722
H          9.75537       12.90193       72.70758
H          9.82415       15.26317       72.38781
H         11.29741       15.40542       73.22669
H         11.23211       14.56293       71.73842
N         13.84832        7.37125       75.32478
C         15.13050        6.69087       75.52831
C         16.26467        7.53659       74.98548
O         16.30354        7.80432       73.79242
C         15.11770        5.30143       74.85109
C         16.42604        4.48840       74.93969
C         16.99912        4.30875       76.32696
O         16.30881        3.70845       77.31960
O         18.13193        4.70225       76.55421
H         13.12223        6.89274       74.77841
H         15.26918        6.53715       76.62097
H         14.89756        5.41655       73.77099
H         14.28568        4.72633       75.28235
H         17.18996        4.99277       74.30764
H         16.23887        3.48774       74.49243
N         17.22283        8.00741       75.82846
C         18.31357        8.83610       75.36955
H         18.92622        8.28024       74.62917
H         17.91424        9.76300       74.90544
H         18.95757        9.11855       76.22927
H         17.17245        7.78229       76.83368
Ca        14.16085        3.11750       77.08165
O         13.44458        4.26367       79.69862
H         12.52349        4.61303       79.79629
H         13.56620        3.65773       80.47199
O         13.33865       -0.55888       77.08845
H         13.42680       -0.85564       76.14792
H         12.92278       -1.32796       77.55349
O         11.92343        1.33458       79.29636
H         12.38180        1.42315       80.16887
H         11.36897        0.52002       79.39300

Ca 1.0



