%chk=apoCaM-CA-Ng.loop1.water5.frame627.chk
%nprocshared=20
%mem=10GB
%nosave
#b3lyp/svp scf=(tight,noincore,xqc) Test 
#IOP(5/87=12) Density=Current Pop=(MK,readradii) iop(6/33=2) iop(6/42=6)

apoCaM-CA-Ng.loop1.water5.frame627 

   0  1 
C         88.31629       28.94016       21.14930
C         87.04855       29.14484       21.92914
O         86.05004       29.52898       21.33684
H         89.14413       28.59059       21.80187
H         88.14679       28.17594       20.36119
H         88.62087       29.89357       20.66955
N         87.00517       28.88243       23.26704
C         85.78379       29.01234       24.06130
C         85.27806       30.45367       24.13841
O         85.93379       31.36276       23.64728
C         85.97912       28.39439       25.46882
C         87.03316       29.04812       26.32437
O         87.26511       28.56772       27.56026
O         87.68772       29.99339       25.91700
H         87.86026       28.52374       23.71939
H         84.99633       28.40675       23.55925
H         86.25917       27.32554       25.34371
H         85.01760       28.42202       26.02231
N         84.06558       30.71287       24.71143
C         83.43327       32.03469       24.71176
C         84.16164       33.10590       25.53001
O         83.76658       34.25980       25.43977
C         81.93595       31.92055       25.10196
C         81.63095       31.38936       26.52042
C         80.10670       31.25322       26.69891
C         79.71554       30.68069       28.06859
N         78.25968       30.55965       28.18093
H         83.53085       29.90687       25.06443
H         83.44006       32.38896       23.65665
H         81.46184       31.23005       24.36905
H         81.45521       32.91582       24.98181
H         82.04530       32.08066       27.28558
H         82.08685       30.38824       26.66827
H         79.71050       30.57148       25.91355
H         79.63300       32.25107       26.57360
H         80.09225       31.34688       28.87529
H         80.17445       29.67500       28.19783
H         77.81032       31.49908       28.08150
H         77.89148       29.91712       27.44160
H         78.01470       30.16664       29.11837
N         85.22471       32.81646       26.33128
C         85.99438       33.81167       27.08216
C         87.45631       33.73313       26.68262
O         87.98126       32.63613       26.66705
C         85.79382       33.61488       28.60545
C         85.69356       32.18825       29.11678
O         84.61771       31.82201       29.56384
O         86.71129       31.29848       29.14145
H         85.51524       31.83350       26.42888
H         85.64301       34.84358       26.88078
H         84.80248       34.07444       28.82323
H         86.53952       34.20635       29.18020
N         88.22590       34.81519       26.35391
C         87.80733       36.20815       26.32694
C         86.85233       36.49008       25.19990
O         87.01101       35.90546       24.13707
H         89.21857       34.63896       26.13074
H         88.70779       36.82736       26.11829
H         87.41357       36.53577       27.31320
N         85.87479       37.43502       25.33707
C         84.93873       37.75144       24.26222
C         85.68581       38.12014       22.98110
O         86.37381       39.13022       22.93056
C         83.90434       38.82693       24.66905
C         84.49308       40.17641       24.99653
O         84.17417       41.15548       24.34120
O         85.34048       40.32489       26.03238
H         85.79606       37.92657       26.23874
H         84.35220       36.82458       24.07870
H         83.33648       38.46845       25.55449
H         83.18110       38.94102       23.83061
N         85.63531       37.25979       21.92722
C         86.39314       37.44458       20.69252
C         86.37090       36.25991       19.71258
O         86.96723       36.40015       18.65426
H         85.05117       36.43825       22.07219
H         87.46081       37.61790       20.94904
H         86.00649       38.35128       20.17773
N         85.73148       35.07679       19.96772
C         85.68695       33.94319       19.05169
C         87.06427       33.30125       18.92973
O         87.66345       32.96880       19.94367
C         84.65899       32.88898       19.55749
C         83.23787       33.46946       19.66177
O         84.62161       31.81180       18.66132
H         85.23593       34.93439       20.84556
H         85.32018       34.28360       18.05659
H         84.98445       32.53301       20.56430
H         84.28954       31.02354       19.16499
H         83.17730       34.30510       20.38759
H         82.89585       33.83604       18.67035
H         82.53758       32.68021       20.00779
N         87.58954       33.02982       17.70277
C         88.86080       32.33699       17.49576
C         90.01413       33.30486       17.70026
O         90.95079       32.95467       18.40243
C         88.91349       31.66182       16.08144
C         87.99106       30.40912       15.97048
C         90.33954       31.17147       15.74462
C         86.51480       30.62851       16.26688
H         87.02223       33.26653       16.87426
H         88.97271       31.49538       18.21827
H         88.63024       32.41111       15.30958
H         88.35111       29.61765       16.66624
H         88.06286       30.01067       14.93491
H         90.35903       30.68935       14.74371
H         91.06167       32.01270       15.70964
H         90.68794       30.43274       16.49964
H         85.95800       29.68215       16.10083
H         86.39116       30.88660       17.33150
H         86.08906       31.41640       15.61206
N         90.01140       34.53853       17.11494
C         91.13751       35.47115       17.21518
C         91.39152       36.12194       15.85262
O         90.60805       35.92079       14.93715
C         90.82795       36.55588       18.28550
C         90.50336       35.94358       19.65236
O         91.93799       37.40186       18.44597
H         89.16061       34.84269       16.61912
H         92.05501       34.92434       17.52492
H         89.94314       37.14211       17.94068
H         91.59572       38.29627       18.70564
H         91.35585       35.32875       20.01307
H         90.31289       36.75262       20.38888
H         89.59209       35.31347       19.59958
N         92.44972       36.96955       15.67226
C         92.61785       37.79215       14.47937
C         93.95525       37.50179       13.80306
O         93.95510       37.06265       12.66016
C         92.41990       39.27965       14.90034
C         92.49004       40.25945       13.73291
O         93.35544       39.67401       15.87373
H         93.12661       37.09675       16.43493
H         91.81665       37.56953       13.73994
H         91.38644       39.37174       15.31772
H         92.90907       39.63161       16.75991
H         93.49593       40.24216       13.26482
H         91.71912       40.01132       12.97437
H         92.29377       41.28777       14.10931
N         95.13096       37.75707       14.43822
C         96.46097       37.57869       13.86093
C         97.28154       36.76502       14.85144
O         97.34797       37.16450       16.00781
C         97.03965       38.99355       13.63533
C         98.42957       39.11030       12.98172
C         98.48775       38.60555       11.52716
C         99.75144       39.08710       10.77752
N        100.99806       38.59854       11.36411
H         95.09261       38.15732       15.38589
H         96.40866       37.06890       12.87306
H         97.08004       39.51639       14.61554
H         96.32547       39.55684       12.99228
H         99.19281       38.60617       13.60692
H         98.65857       40.19853       12.96522
H         97.62465       39.02987       10.96904
H         98.40882       37.49756       11.49919
H         99.76826       40.19991       10.76422
H         99.69285       38.74069        9.72184
H        101.80273       38.96147       10.80347
H        101.10672       38.94492       12.34320
H        101.02093       37.55656       11.33186
N         97.91734       35.60942       14.50093
C         98.58170       34.77191       15.50094
C         97.54684       34.02246       16.33951
O         97.51261       34.27263       17.53585
C         99.64831       33.82658       14.89561
C        100.97473       34.53740       14.58109
C        100.83137       35.63071       13.57504
O        100.43411       35.38360       12.44815
O        101.15570       36.89153       13.91563
H         97.90771       35.31034       13.51359
H         99.14852       35.42634       16.20363
H         99.27810       33.30835       13.99196
H         99.90941       33.05984       15.65832
H        101.70718       33.79426       14.20013
H        101.38623       34.96422       15.52317
N         96.66199       33.10197       15.85133
C         96.55814       32.68381       14.47072
H         96.32413       33.54758       13.81753
H         97.48077       32.17184       14.14385
H         95.73618       31.94314       14.36893
H         96.00457       32.66548       16.51697
Ca        88.93022       31.30172       28.70655
O         90.77082       31.52833       25.91463
H         90.49708       32.42552       25.59812
H         90.85630       30.98992       25.08831
O         89.06393       29.10027       30.80112
H         90.00549       29.29081       31.04143
H         89.07088       28.15907       30.49405
O         89.67021       33.90820       29.63171
H         88.89858       33.90115       30.25213
H         90.33859       33.31829       30.06343
O         90.29007       28.29624       27.75635
H         90.35974       27.57552       27.08108
H         91.04108       28.12764       28.37910
O         91.87310       30.89336       28.81630
H         92.33552       30.50477       29.60048
H         92.21359       31.82115       28.75779

Ca 1.0



