%chk=apoCaM-CA-Ng.loop4.water6.frame1032.chk
%nprocshared=20
%mem=10GB
%nosave
#b3lyp/svp scf=(tight,noincore,xqc) Test 
#IOP(5/87=12) Density=Current Pop=(MK,readradii) iop(6/33=2) iop(6/42=6)

apoCaM-CA-Ng.loop4.water6.frame1032 

   -3  1 
C         21.32318       60.94593       37.96109
C         22.70899       60.67375       37.44403
O         23.50574       60.12115       38.18678
H         20.57877       60.41302       37.33164
H         21.21677       60.58163       39.00549
H         21.11602       62.03569       37.94937
N         23.10033       60.99009       36.17698
C         22.25352       61.63663       35.17637
C         21.92690       60.66619       34.04739
O         21.24836       61.06307       33.10866
C         22.96109       62.90179       34.63004
C         23.54822       63.71695       35.75152
O         22.84227       64.12563       36.65994
O         24.88775       63.86069       35.82032
H         24.05772       60.73482       35.89336
H         21.29283       61.95838       35.62645
H         22.25452       63.50876       34.02449
H         23.79204       62.59300       33.96335
N         22.35472       59.36405       34.07884
C         22.05279       58.38478       33.04134
C         22.73857       58.68537       31.70836
O         22.46218       57.97677       30.75675
C         22.40296       56.93103       33.50375
C         23.92923       56.73722       33.73878
C         21.56437       56.55319       34.74301
C         24.31658       55.29668       34.07496
H         22.87474       59.03700       34.90090
H         20.95328       58.41010       32.86290
H         22.09330       56.24018       32.68790
H         24.29827       57.39234       34.55410
H         24.47489       57.00941       32.81009
H         20.48393       56.69750       34.52864
H         21.69772       55.48552       35.00746
H         21.83288       57.16783       35.62676
H         25.42080       55.22635       34.16944
H         23.87821       54.97615       35.04158
H         23.98374       54.60901       33.26910
N         23.62808       59.71800       31.55814
C         24.24984       60.01489       30.26592
C         24.84313       61.42425       30.24905
O         25.01616       62.03582       31.28799
C         25.31175       58.93637       29.93876
C         25.93847       59.09387       28.58328
O         25.25412       59.01375       27.57588
O         27.26522       59.29910       28.47365
H         23.83208       60.32068       32.35963
H         23.43643       60.02117       29.50792
H         24.85769       57.92427       29.97567
H         26.10578       58.97409       30.71469
N         25.07479       62.03884       29.05148
C         25.53572       63.41139       28.94021
C         26.99017       63.54921       29.31773
O         27.34962       63.27225       30.45448
H         24.83315       61.54722       28.18162
H         24.89933       64.08032       29.55834
H         25.40896       63.73000       27.88270
N         27.88786       63.98691       28.38938
C         29.31770       64.13229       28.63888
C         30.10148       63.20409       27.70973
O         29.54628       62.77662       26.70587
C         29.74837       65.61479       28.50020
C         29.45928       66.23015       27.15288
O         28.19012       66.40494       26.73660
O         30.37600       66.63124       26.45430
H         27.53925       64.20364       27.44432
H         29.53025       63.82458       29.68227
H         30.83180       65.70549       28.70249
H         29.22484       66.22027       29.27056
N         31.36794       62.76772       27.98144
C         32.10650       63.13200       29.18451
C         33.41413       62.37811       29.35281
O         33.71663       61.52101       28.53473
H         31.78844       62.10935       27.30816
H         31.48394       62.86819       30.05942
H         32.31694       64.21048       29.15922
N         34.25909       62.58583       30.41156
C         34.12132       63.57985       31.47521
C         32.79516       63.46094       32.19739
O         31.95405       64.34279       32.07401
C         34.39811       65.04234       31.04225
C         35.80210       65.31237       30.47429
C         35.90202       65.08932       28.98460
N         36.15533       66.13464       28.15971
O         35.76093       63.97330       28.51305
H         35.08618       61.97064       30.47573
H         34.91501       63.37950       32.23163
H         34.34592       65.61812       31.99487
H         33.62854       65.47734       30.37527
H         36.57556       64.73574       31.02723
H         36.01208       66.38770       30.65799
H         36.28291       67.08745       28.53290
H         36.22059       65.99741       27.14091
N         32.56477       62.40925       33.02423
C         31.30957       62.22972       33.74482
C         30.78621       60.81871       33.52961
O         31.43376       60.01558       32.87141
C         31.47855       62.60852       35.24968
C         31.74014       64.11528       35.40109
C         32.58588       61.81643       35.95147
H         33.32565       61.72903       33.17806
H         30.52401       62.90499       33.33831
H         30.52636       62.40630       35.78324
H         30.90273       64.69289       34.95294
H         31.80469       64.39199       36.47471
H         32.68724       64.41255       34.90451
H         32.63274       62.09299       37.02692
H         32.36542       60.73804       35.88168
H         33.57947       62.02302       35.50016
N         29.59284       60.45873       34.07016
C         28.99770       59.13214       33.94034
C         28.99192       58.40502       35.28499
O         28.52418       57.27671       35.34580
C         27.58807       59.30252       33.33512
C         26.68572       60.07703       34.26024
N         26.38516       61.36942       34.00607
O         26.26076       59.54458       35.27440
H         29.07986       61.16281       34.62106
H         29.59291       58.50579       33.24182
H         27.11035       58.32974       33.09083
H         27.71236       59.86034       32.37993
H         26.76784       61.85589       33.18310
H         25.80975       61.89973       34.66882
N         29.49339       59.00168       36.40689
C         29.52186       58.39005       37.72795
C         29.77903       59.45915       38.77721
O         30.66854       60.28217       38.60366
C         30.57717       57.27323       37.86738
C         31.98709       57.77599       37.67333
C         32.81797       58.00746       38.78486
C         32.47619       58.03455       36.38508
C         34.11058       58.50759       38.60689
C         33.77559       58.51713       36.20853
C         34.59419       58.76389       37.31997
O         35.84174       59.24927       37.16319
H         29.85046       59.96215       36.33854
H         28.52487       57.94136       37.93521
H         30.37938       56.41837       37.18734
H         30.46849       56.88147       38.90454
H         32.45785       57.82559       39.79064
H         31.85377       57.85897       35.51745
H         34.73453       58.70057       39.47083
H         34.13848       58.71083       35.20751
H         36.20956       59.44629       36.28998
N         29.00299       59.50929       39.88846
C         29.11940       60.54646       40.90317
C         27.94603       60.38370       41.83787
O         28.07369       59.77541       42.89338
C         30.48602       60.51917       41.63649
C         30.64275       61.76189       42.53142
C         31.97519       61.78894       43.22112
O         33.00732       61.80988       42.56914
O         32.03660       61.82018       44.56589
H         28.26903       58.78916       39.99394
H         29.02287       61.53269       40.39783
H         31.31379       60.54411       40.89947
H         30.59411       59.58473       42.23026
H         29.83731       61.78587       43.29548
H         30.55667       62.67744       41.90494
N         26.72290       60.82081       41.43170
C         25.51366       60.51380       42.16506
C         25.22975       59.03334       41.98817
O         25.13326       58.31523       42.97278
C         24.28198       61.32035       41.69263
C         24.36090       62.85508       41.86583
C         24.75400       63.57688       40.60191
O         23.90005       64.20615       39.99612
O         25.98997       63.52666       40.08086
H         26.65308       61.32398       40.53958
H         25.65669       60.76942       43.23986
H         23.46634       60.97610       42.36739
H         23.95913       61.07110       40.65857
H         24.95471       63.15996       42.75368
H         23.31439       63.18070       42.05807
N         25.10964       58.51637       40.72945
C         24.84934       57.12121       40.44303
H         23.91885       57.03926       39.84218
H         25.69130       56.70624       39.84883
H         24.73163       56.51460       41.36414
H         25.22533       59.14241       39.91869
Ca        25.87409       63.74120       37.84316
O         29.42483       64.11353       38.67385
H         29.87642       64.88183       39.10479
H         30.15234       63.62573       38.21236
O         27.66352       61.50887       36.96472
H         27.28930       61.07925       37.77401
H         28.46666       61.98908       37.28431
O         27.80502       64.55468       35.14822
H         28.08311       63.98804       34.38568
H         27.58020       65.42854       34.73990
O         25.19792       66.93322       37.02432
H         24.58520       66.40593       36.45455
H         25.03984       67.87078       36.74932
O         28.36249       66.77175       37.18098
H         28.57049       67.18107       38.05777
H         27.96605       67.50826       36.65119
O         26.99827       66.35851       40.17908
H         26.40596       67.00160       39.71441
H         26.60497       66.26682       41.08300

Ca 1.0



