%chk=apoCaM-CA-Ng.loop1.water3.frame1095.chk
%nprocshared=20
%mem=10GB
%nosave
#b3lyp/svp scf=(tight,noincore,xqc) Test 
#IOP(5/87=12) Density=Current Pop=(MK,readradii) iop(6/33=2) iop(6/42=6)

apoCaM-CA-Ng.loop1.water3.frame1095 

   0  1 
C         53.74071       73.67907       68.54903
C         52.58105       73.96731       69.45310
O         51.52416       73.39493       69.26012
H         54.59503       73.29459       69.14342
H         53.46391       72.92097       67.78489
H         54.04279       74.61274       68.02957
N         52.71300       74.85760       70.47366
C         51.64108       75.20776       71.41118
C         50.55108       76.11350       70.81268
O         49.75185       76.63836       71.57499
C         52.25774       75.83539       72.68857
C         52.99049       77.14009       72.50578
O         53.57772       77.71329       73.57356
O         53.06722       77.68401       71.41556
H         53.65083       75.26217       70.61937
H         51.15683       74.27758       71.77845
H         52.97287       75.09873       73.11678
H         51.45534       75.99239       73.44174
N         50.44414       76.33435       69.46943
C         49.48053       77.24868       68.85638
C         48.03761       76.93196       69.25567
O         47.40320       77.84239       69.77177
C         49.67823       77.33200       67.31968
C         51.09481       77.84092       66.97085
C         51.34213       77.89434       65.46251
C         52.78422       78.34506       65.17936
N         53.06030       78.36038       63.74476
H         51.07999       75.83915       68.84246
H         49.69727       78.27454       69.23432
H         48.93714       78.04552       66.89634
H         49.51243       76.34757       66.84039
H         51.86569       77.16927       67.39746
H         51.24083       78.85281       67.40866
H         50.62452       78.59766       64.98761
H         51.19129       76.87919       65.03400
H         53.49637       77.64666       65.67526
H         52.94725       79.36292       65.59896
H         52.41624       79.02759       63.26211
H         54.04803       78.66785       63.59152
H         52.94092       77.39999       63.34780
N         47.42578       75.71212       69.15266
C         48.01291       74.47878       68.63782
C         48.37802       73.55356       69.79664
O         48.12026       73.89277       70.94384
C         47.02388       73.80317       67.64775
C         45.75807       73.38586       68.35525
O         45.88423       72.57820       69.42276
O         44.67179       73.82151       68.02037
H         46.47519       75.64201       69.55051
H         48.95684       74.68897       68.10939
H         47.49360       72.89588       67.21501
H         46.79250       74.49854       66.81074
N         49.02704       72.37565       69.56650
C         49.53067       71.54455       70.65072
C         48.49248       70.63398       71.25109
O         47.39263       70.53352       70.73242
H         49.29734       72.13726       68.60076
H         49.98096       72.19515       71.43035
H         50.33671       70.88554       70.26482
N         48.79733       69.92715       72.37568
C         47.90004       68.95971       73.00877
C         48.67693       67.68208       73.36103
O         49.89876       67.70281       73.27867
C         47.24866       69.63899       74.23966
C         46.35227       70.74153       73.74739
O         46.63010       71.90818       73.96970
O         45.30478       70.43116       72.95134
H         49.70389       70.12105       72.83085
H         47.10057       68.68422       72.29338
H         48.04911       70.03379       74.90365
H         46.62406       68.96601       74.84463
N         48.08729       66.50803       73.74430
C         46.65562       66.26433       73.80326
C         46.00868       66.30870       72.44046
O         46.69646       66.36499       71.43243
H         48.70129       65.71681       73.99434
H         46.17347       66.97683       74.48684
H         46.46398       65.25344       74.22392
N         44.65242       66.27417       72.35139
C         43.92657       66.28029       71.08507
C         44.22283       67.52481       70.24910
O         44.48861       68.58404       70.79697
C         42.41212       66.11880       71.35618
C         41.58236       66.02272       70.07633
O         41.94899       67.19103       72.13740
H         44.11809       66.22139       73.23256
H         44.25873       65.38772       70.50849
H         42.29100       65.15751       71.91205
H         41.26174       66.82940       72.75594
H         41.64058       66.97026       69.50145
H         41.94199       65.18551       69.44250
H         40.52103       65.83353       70.33899
N         44.21043       67.42253       68.88708
C         44.49483       68.48210       67.92122
C         43.44934       69.59402       67.95611
O         43.28173       70.24681       68.97549
C         45.93301       69.06547       68.05256
C         47.03026       67.98718       68.24618
C         46.26704       69.95717       66.83748
C         47.09843       66.91300       67.15881
H         43.99887       66.49670       68.48428
H         44.45179       68.00264       66.91770
H         45.96758       69.70829       68.95199
H         46.85955       67.47619       69.21152
H         48.02038       68.48953       68.31894
H         46.23135       69.37553       65.89204
H         45.54616       70.79595       66.74703
H         47.28240       70.39394       66.94427
H         47.31311       67.35382       66.16543
H         47.91382       66.20061       67.40661
H         46.15067       66.33855       67.11369
N         42.77010       69.91404       66.81866
C         41.87534       71.06719       66.70744
C         40.54127       70.91199       67.44152
O         39.77000       71.86208       67.42196
C         41.61245       71.39250       65.20558
C         40.82445       70.29669       64.46847
O         42.83276       71.58984       64.53740
H         43.00133       69.38261       65.96731
H         42.40646       71.94855       67.13211
H         41.00311       72.32341       65.12903
H         43.18096       72.47413       64.82428
H         40.66431       70.60081       63.41213
H         41.36642       69.32914       64.46204
H         39.82964       70.14244       64.93556
N         40.15935       69.74608       68.04016
C         38.80684       69.54241       68.56545
C         38.50849       70.44936       69.74951
O         39.10957       70.26912       70.79891
C         38.60232       68.05796       68.96376
C         37.19792       67.77385       69.50467
O         38.81155       67.23576       67.84207
H         40.81303       68.95146       68.03611
H         38.09199       69.76485       67.74170
H         39.31738       67.79933       69.77894
H         39.74482       66.90131       67.88265
H         36.99854       68.36098       70.42545
H         36.43092       68.02087       68.74102
H         37.11279       66.69774       69.76647
N         37.56362       71.43495       69.64847
C         37.14043       72.28810       70.75771
C         38.34830       72.92007       71.42429
O         38.63138       72.63308       72.58024
C         36.23685       71.51618       71.74803
C         34.97098       70.97119       71.05796
C         33.97328       70.41013       72.08460
C         32.67649       69.87957       71.44528
N         32.90262       68.68067       70.63594
H         37.11761       71.59959       68.73335
H         36.50229       73.10952       70.35921
H         35.92154       72.23598       72.53671
H         36.78715       70.68128       72.23290
H         35.27103       70.19051       70.32983
H         34.46503       71.79503       70.50740
H         33.69043       71.23876       72.77124
H         34.44470       69.60524       72.68822
H         32.20131       70.67332       70.82625
H         31.96842       69.62135       72.26404
H         33.33511       67.93050       71.22276
H         31.98266       68.33541       70.27812
H         33.51416       68.89029       69.81632
N         39.11846       73.79107       70.71911
C         40.37850       74.33534       71.21266
C         41.48662       74.07596       70.20030
O         42.39722       73.34457       70.56000
C         40.27306       75.82040       71.62316
C         39.42769       75.99581       72.89349
C         39.35124       77.44258       73.28723
O         39.86173       77.85149       74.46455
O         38.82176       78.25413       72.54471
H         38.79640       74.04205       69.77580
H         40.67971       73.79926       72.14241
H         39.85447       76.44974       70.82000
H         41.29511       76.19463       71.85511
H         39.90042       75.42065       73.72121
H         38.39831       75.60948       72.73923
N         41.54945       74.59318       68.93456
C         40.60920       75.47926       68.28062
H         39.72243       75.72714       68.87254
H         41.12660       76.42763       68.02420
H         40.25707       75.00237       67.34283
H         42.36200       74.33681       68.36098
Ca        44.78634       71.79330       71.22504
O         45.27263       74.45261       72.70095
H         46.04811       74.87081       72.25098
H         45.57971       74.29816       73.62924
O         42.14952       70.25234       71.89877
H         41.44211       70.94155       71.95943
H         41.83354       69.63603       71.19179
O         42.88953       72.68619       73.67099
H         43.63402       72.54221       74.30735
H         42.07680       72.43474       74.17724

Ca 1.0



