%chk=apoCaM-CA-Ng.loop1.water3.frame756.chk
%nprocshared=20
%mem=10GB
%nosave
#b3lyp/svp scf=(tight,noincore,xqc) Test 
#IOP(5/87=12) Density=Current Pop=(MK,readradii) iop(6/33=2) iop(6/42=6)

apoCaM-CA-Ng.loop1.water3.frame756 

   0  1 
C         72.36923       49.36633       11.14914
C         73.18635       50.17647       10.18689
O         72.59887       50.86373        9.36335
H         71.70823       48.67745       10.58303
H         73.01215       48.76824       11.82747
H         71.74082       50.04581       11.76382
N         74.55032       50.17578       10.25338
C         75.38519       50.97772        9.36134
C         76.54540       50.17055        8.71201
O         76.47364       48.80005        8.97491
C         75.92576       52.21408       10.10877
C         76.77891       51.93689       11.32336
O         77.05644       50.79978       11.66912
O         77.23610       52.97421       12.04955
H         75.00312       49.62672       10.99853
H         74.75404       51.38515        8.54057
H         75.05092       52.81256       10.44495
H         76.51433       52.83791        9.40204
N         76.62469       50.41733        7.26673
C         77.80578       49.86537        6.56738
C         79.05759       50.69453        6.83920
O         79.03263       51.90135        6.64309
C         77.41185       49.75623        5.07956
C         78.47884       49.22185        4.10679
C         79.31536       50.34413        3.47061
C         80.22229       49.79090        2.36102
N         80.85313       50.87599        1.60808
H         76.54994       51.44253        7.06650
H         77.99390       48.81877        6.89698
H         76.99350       50.70908        4.68801
H         76.57731       49.01898        5.07415
H         77.92327       48.75886        3.26128
H         79.09705       48.42572        4.57694
H         79.92252       50.88536        4.22484
H         78.60889       51.06439        3.00047
H         79.61789       49.18311        1.65053
H         80.99590       49.13121        2.81092
H         80.11860       51.46833        1.15560
H         81.44355       51.46485        2.23837
H         81.44915       50.46954        0.85137
N         80.19992       50.08856        7.29082
C         81.41651       50.82219        7.67386
C         82.62170       49.88115        7.86470
O         82.42491       48.67365        7.86261
C         81.11326       51.62486        8.97084
C         80.69341       50.77296       10.14904
O         80.34100       51.31944       11.18158
O         80.64324       49.42790       10.07438
H         80.18791       49.06090        7.36035
H         81.67431       51.50660        6.84074
H         80.28762       52.33462        8.76228
H         81.96671       52.23796        9.29144
N         83.91555       50.30110        8.03265
C         84.43565       51.66191        7.98209
C         84.41454       52.26619        6.59817
O         83.90748       51.66083        5.66428
H         84.62256       49.56791        8.20279
H         85.51140       51.61728        8.26303
H         83.95772       52.32270        8.72020
N         85.01884       53.47275        6.39660
C         85.15945       54.08573        5.08047
C         85.95609       53.18124        4.15167
O         85.44475       52.83184        3.09789
C         85.77631       55.50912        5.15383
C         87.18521       55.59346        5.68780
O         87.46701       55.22903        6.95308
O         88.08066       56.02263        4.97748
H         85.40564       53.95773        7.21851
H         84.14100       54.22741        4.65195
H         85.12808       56.15379        5.78492
H         85.76478       55.93303        4.12426
N         87.21292       52.75627        4.47674
C         88.01257       51.91041        3.60619
C         87.50056       50.48799        3.47208
O         88.08819       49.75487        2.68995
H         87.64147       53.06493        5.35991
H         89.04641       51.84266        4.00904
H         88.07179       52.38856        2.60384
N         86.44423       50.01115        4.19846
C         85.93278       48.64708        4.07073
C         86.04387       47.91995        5.40176
O         86.33980       48.54710        6.40920
C         84.45725       48.68589        3.59090
C         84.28057       49.52230        2.31908
O         83.95069       47.39272        3.37631
H         85.97878       50.62624        4.87389
H         86.53901       48.08619        3.32646
H         83.83911       49.16409        4.38292
H         84.45694       46.99445        2.61965
H         84.56305       50.57588        2.50282
H         84.89750       49.12038        1.48921
H         83.21900       49.50637        2.01548
N         85.82027       46.57679        5.47754
C         85.93730       45.82721        6.72483
C         87.38098       45.89002        7.21145
O         87.58900       46.25453        8.36081
C         85.40958       44.36223        6.58337
C         83.92117       44.37726        6.11356
C         85.53065       43.63537        7.94178
C         83.27825       42.99553        5.97021
H         85.58664       46.06961        4.61380
H         85.27877       46.30228        7.48853
H         86.02388       43.81502        5.83459
H         83.84689       44.85857        5.11787
H         83.30557       44.97267        6.82320
H         86.58250       43.61397        8.29231
H         84.90939       44.14366        8.71158
H         85.21072       42.57727        7.86618
H         83.19105       42.48556        6.95088
H         82.24717       43.11255        5.57272
H         83.86111       42.36396        5.26817
N         88.42819       45.63192        6.36866
C         89.82911       45.76846        6.77590
C         90.64036       44.54025        6.40124
O         90.17837       43.69998        5.64025
C         90.45912       47.01914        6.09345
C         89.76183       48.30951        6.51003
O         91.81706       47.14482        6.43432
H         88.22429       45.40643        5.38217
H         89.89646       45.88997        7.87940
H         90.35101       46.89528        4.98768
H         92.30884       47.40905        5.61305
H         88.70726       48.28555        6.20176
H         89.82644       48.44484        7.61133
H         90.24301       49.17726        6.01202
N         91.90445       44.41267        6.89453
C         92.85400       43.39558        6.48207
C         93.16752       42.48842        7.65718
O         92.92120       41.29504        7.55218
C         94.10483       44.10701        5.88459
C         95.18223       43.13730        5.39904
O         94.67572       44.98778        6.82180
H         92.22987       45.10017        7.59039
H         92.42045       42.76273        5.67423
H         93.74608       44.68551        4.99811
H         94.90777       45.82874        6.34756
H         95.58120       42.53760        6.24408
H         94.77234       42.45907        4.62279
H         96.02284       43.71462        4.95511
N         93.73180       42.97846        8.79805
C         94.12558       42.14296        9.92230
C         93.58302       42.72024       11.21716
O         93.78016       43.90265       11.46494
C         95.65992       42.08656        9.95993
C         96.16733       41.03685       10.95854
C         97.69538       40.96335       10.92917
C         98.21178       39.83636       11.83020
N         99.67240       39.78016       11.80128
H         93.95734       43.98079        8.85573
H         93.77029       41.09758        9.78253
H         96.07880       43.09160       10.18826
H         96.01679       41.78388        8.94974
H         95.75118       40.04547       10.67001
H         95.82627       41.27939       11.98850
H         98.11308       41.93765       11.26491
H         98.03555       40.76691        9.88844
H         97.80130       38.86445       11.47398
H         97.86871       40.00073       12.87563
H         99.99722       38.98896       12.40221
H        100.00774       39.62209       10.82296
H        100.07108       40.67400       12.17008
N         92.95327       41.92785       12.12949
C         92.48797       42.44394       13.41346
C         91.31480       43.40337       13.22289
O         91.48257       44.56360       13.57146
C         92.20015       41.29991       14.41111
C         93.50178       40.59382       14.82957
C         93.22378       39.45065       15.76177
O         92.60557       39.66822       16.93838
O         93.56605       38.31825       15.46069
H         92.86596       40.91952       11.93005
H         93.31514       43.02911       13.88031
H         91.51982       40.54992       13.97075
H         91.73116       41.72268       15.32728
H         94.16709       41.31973       15.34696
H         94.03505       40.21209       13.93224
N         90.11117       43.06752       12.67111
C         89.73727       41.74817       12.21325
H         88.72159       41.78572       11.76539
H         90.44406       41.38475       11.44075
H         89.67362       41.04583       13.06379
H         89.40599       43.81343       12.56145
Ca        78.62479       48.56419        9.61866
O         80.79163       47.34323       12.42622
H         81.04323       46.42071       12.16963
H         81.51824       47.90697       12.05985
O         78.42707       49.59762       14.33668
H         78.96169       49.81289       15.14191
H         77.49889       49.83906       14.58344
O         78.70536       45.58826       10.29478
H         78.38091       45.09020        9.50308
H         79.61870       45.87917       10.04619

Ca 1.0



