%chk=apoCaM-CA-Ng.loop1.water3.frame217.chk
%nprocshared=20
%mem=10GB
%nosave
#b3lyp/svp scf=(tight,noincore,xqc) Test 
#IOP(5/87=12) Density=Current Pop=(MK,readradii) iop(6/33=2) iop(6/42=6)

apoCaM-CA-Ng.loop1.water3.frame217 

   0  1 
C         19.09841        5.01554       63.26106
C         18.06289        4.92090       64.34233
O         18.25047        4.18601       65.30146
H         19.97059        4.36703       63.48520
H         18.65148        4.69869       62.29483
H         19.44536        6.06687       63.16843
N         16.93117        5.66762       64.24663
C         15.87689        5.67736       65.25690
C         15.06838        4.37484       65.34211
O         14.12723        4.34672       66.11862
C         14.96094        6.91543       65.06459
C         14.12784        6.93384       63.81151
O         12.78663        6.99466       63.90920
O         14.65027        6.95904       62.70915
H         16.86361        6.31110       63.44497
H         16.35010        5.84368       66.24175
H         15.58706        7.83388       65.08895
H         14.27575        6.97902       65.92942
N         15.34946        3.26371       64.59820
C         14.51070        2.06414       64.59461
C         15.27439        0.82815       65.05135
O         16.34101        0.59151       64.50064
C         13.99801        1.83703       63.15860
C         13.04196        2.96096       62.74931
C         12.47507        2.77217       61.34174
C         11.30081        3.72981       61.06238
N         11.67721        5.14037       61.16085
H         16.15420        3.26545       63.95806
H         13.63186        2.20342       65.23810
H         13.43725        0.87751       63.11708
H         14.85381        1.77108       62.45073
H         13.55378        3.94399       62.81823
H         12.19950        2.94023       63.45613
H         12.07625        1.73865       61.24751
H         13.28477        2.90683       60.59221
H         10.47882        3.52060       61.78432
H         10.91576        3.52501       60.04026
H         12.45695        5.35736       60.49972
H         10.84745        5.72899       60.91970
H         11.95644        5.37515       62.13791
N         14.80392       -0.08328       65.96959
C         13.54137       -0.05628       66.71883
C         12.32519        0.11219       65.81110
O         11.59768        1.07753       65.98450
C         13.58173        0.99210       67.86298
C         14.61110        0.69688       68.92243
O         15.36391       -0.25938       68.82809
O         14.67036        1.47669       70.01794
H         15.38740       -0.92036       66.12710
H         13.41069       -1.03646       67.23197
H         12.60027        0.97702       68.38136
H         13.74969        2.01426       67.47204
N         11.98717       -0.76818       64.82928
C         12.67542       -2.02779       64.59357
C         12.05049       -2.82656       63.45287
O         11.21779       -2.29470       62.73375
H         11.15246       -0.53497       64.27093
H         12.58293       -2.61580       65.52834
H         13.74801       -1.86183       64.36404
N         12.34723       -4.14140       63.22912
C         13.23925       -4.94228       64.06095
C         12.42627       -5.90311       64.90401
O         11.24264       -6.08186       64.64080
C         14.29505       -5.69348       63.21784
C         13.70949       -6.73160       62.28869
O         12.97699       -6.40782       61.36799
O         14.01625       -8.03190       62.45946
H         11.82279       -4.61475       62.47850
H         13.79019       -4.28728       64.76356
H         14.98940       -6.21119       63.91454
H         14.89114       -4.96780       62.62442
N         12.99024       -6.52133       65.97971
C         12.25617       -7.43307       66.84092
C         11.01151       -6.77760       67.38743
O          9.92564       -7.26139       67.10258
H         13.97570       -6.32168       66.21250
H         12.90498       -7.76167       67.68081
H         11.97141       -8.33104       66.25019
N         11.09295       -5.64914       68.14782
C          9.91003       -4.91304       68.59387
C          9.91887       -3.51951       67.99349
O         10.91829       -3.12641       67.41024
C          9.79989       -4.90429       70.13986
C         10.98489       -4.23788       70.85612
O          9.62059       -6.21409       70.61961
H         12.02643       -5.27542       68.37730
H          8.99133       -5.40356       68.20773
H          8.88801       -4.33126       70.41487
H         10.44469       -6.72978       70.41746
H         10.80925       -4.25440       71.95310
H         11.93220       -4.77962       70.65386
H         11.09471       -3.18183       70.53515
N          8.79994       -2.73595       68.04852
C          8.74011       -1.41434       67.44253
C          8.50726       -0.40763       68.55026
O          7.48935       -0.45540       69.22513
C          7.67473       -1.30775       66.30376
C          7.93467       -2.29653       65.13071
C          7.69711        0.12223       65.71687
C          7.54008       -3.74791       65.41076
H          7.95793       -3.09262       68.52459
H          9.71119       -1.17840       66.95626
H          6.65167       -1.48260       66.70367
H          8.99763       -2.23513       64.80693
H          7.30333       -1.99931       64.26455
H          7.45101        0.88044       66.48884
H          8.69562        0.36022       65.28910
H          6.93811        0.22339       64.91104
H          7.71670       -4.35519       64.49819
H          8.12118       -4.21248       66.21966
H          6.45989       -3.80103       65.66387
N          9.44547        0.54852       68.76723
C          9.38840        1.56794       69.80394
C         10.29280        2.69647       69.35385
O         11.29200        2.98909       69.99629
C          9.77173        0.97319       71.19102
C         11.11319        0.21635       71.18055
O          8.76307        0.09638       71.61840
H         10.25917        0.56307       68.13572
H          8.36961        2.01203       69.86390
H          9.83295        1.82632       71.90843
H          8.84079        0.02666       72.60654
H         11.96110        0.86033       70.87904
H         11.33065       -0.16392       72.19998
H         11.06771       -0.65016       70.48809
N         10.00556        3.34400       68.18517
C         10.92931        4.29248       67.57643
C         11.28767        5.43392       68.51101
O         10.64980        5.60985       69.54038
C         10.43314        4.78068       66.18316
C          9.17101        5.64117       66.23743
O         10.15845        3.68134       65.36022
H          9.14471        3.08343       67.67894
H         11.87000        3.72383       67.40846
H         11.22556        5.40201       65.70578
H         11.02866        3.25549       65.18234
H          9.34083        6.55601       66.83753
H          8.89905        5.94923       65.20327
H          8.31890        5.07285       66.66366
N         12.37304        6.20456       68.22939
C         12.89201        7.23283       69.12232
C         14.32389        6.92801       69.57887
O         14.83455        7.67035       70.40620
C         12.85799        8.58820       68.40986
C         11.45104        8.93787       67.89269
C         11.44144       10.23127       67.07192
C         11.77601       11.47638       67.90475
N         11.78690       12.66903       67.06164
H         12.86457        6.03881       67.34495
H         12.26155        7.29556       70.03672
H         13.55621        8.55447       67.54628
H         13.21105        9.36125       69.12211
H         10.72929        9.00361       68.73620
H         11.11149        8.13249       67.20785
H         10.42634       10.36011       66.63684
H         12.16528       10.12761       66.23364
H         12.77511       11.37766       68.37666
H         11.01622       11.59277       68.70959
H         10.85562       12.79880       66.60449
H         11.99858       13.50344       67.65444
H         12.53019       12.57673       66.33087
N         15.02820        5.85475       69.10852
C         16.36391        5.49025       69.57576
C         17.39633        6.55844       69.25436
O         17.61105        6.86335       68.09008
C         16.76148        4.12601       68.95837
C         18.09906        3.51405       69.41345
C         18.23494        3.40686       70.91100
O         18.19994        2.21419       71.53691
O         18.40946        4.41271       71.57749
H         14.58627        5.23013       68.42425
H         16.29595        5.34945       70.67410
H         16.77840        4.19618       67.84956
H         15.96304        3.40891       69.22568
H         18.95852        4.09510       69.01510
H         18.14909        2.49811       68.96427
N         18.10165        7.15227       70.25674
C         19.13887        8.12838       70.00297
H         19.93777        7.67744       69.37552
H         18.71443        9.01461       69.48721
H         19.59224        8.45476       70.96369
H         17.91385        6.89317       71.23616
Ca        17.70169        0.25991       70.52620
O         14.00928       -0.99458       72.38426
H         13.51648       -1.84723       72.28029
H         13.66147       -0.60906       73.22722
O         16.30902       -2.58445       71.04877
H         15.59839       -3.16671       71.41777
H         16.72512       -3.12548       70.33173
O         15.20614        1.89381       73.30220
H         15.40838        2.14162       74.23934
H         14.24387        2.10073       73.19282

Ca 1.0



