%chk=apoCaM-CA-Ng.loop3.water3.frame882.chk
%nprocshared=20
%mem=10GB
%nosave
#b3lyp/svp scf=(tight,noincore,xqc) Test 
#IOP(5/87=12) Density=Current Pop=(MK,readradii) iop(6/33=2) iop(6/42=6)

apoCaM-CA-Ng.loop3.water3.frame882 

   0  1 
C        123.48643       -5.65116       -7.42282
C        124.77503       -5.62037       -8.18781
O        124.77036       -5.18655       -9.33142
H        122.74483       -6.27684       -7.95884
H        123.63190       -6.05775       -6.40005
H        123.09449       -4.61532       -7.33179
N        125.93816       -6.01923       -7.60058
C        127.22883       -5.85864       -8.25896
C        127.44487       -6.94928       -9.31947
O        126.66060       -7.88601       -9.38079
C        128.33210       -5.78682       -7.17171
C        129.59537       -5.05678       -7.55192
O        130.51395       -5.00776       -6.75164
O        129.72494       -4.41112       -8.72416
H        125.91001       -6.32503       -6.61526
H        127.21370       -4.87496       -8.73797
H        128.54910       -6.81646       -6.81590
H        127.94814       -5.20780       -6.30429
N        128.48980       -6.88362      -10.19139
C        128.80344       -7.87968      -11.21455
C        130.12431       -8.57080      -10.86939
O        130.19961       -9.78320      -11.00924
C        128.78899       -7.19660      -12.60551
C        129.10446       -8.15934      -13.76902
C        128.96221       -7.51442      -15.16533
C        127.50077       -7.20988      -15.55039
N        127.41160       -6.68295      -16.91391
H        129.10123       -6.06707      -10.14834
H        128.02357       -8.67317      -11.24737
H        129.51279       -6.35429      -12.63170
H        127.76874       -6.78357      -12.74274
H        128.44741       -9.05487      -13.72453
H        130.15721       -8.49641      -13.65450
H        129.35671       -8.23903      -15.91124
H        129.57912       -6.59112      -15.22429
H        127.05613       -6.47061      -14.85203
H        126.90703       -8.14953      -15.49133
H        127.80796       -7.36969      -17.59641
H        126.40658       -6.51874      -17.15363
H        127.92779       -5.77639      -16.98551
N        131.16873       -7.87950      -10.32381
C        132.41936       -8.48798       -9.85912
C        132.57615       -8.37029       -8.33318
O        133.59216       -8.81650       -7.81856
C        133.60636       -7.87280      -10.65377
C        133.73532       -6.37865      -10.50023
O        134.38959       -5.72170      -11.29240
O        133.07155       -5.78025       -9.50426
H        131.06460       -6.86745      -10.19238
H        132.42398       -9.57801      -10.07831
H        133.39346       -8.08264      -11.72422
H        134.57140       -8.35941      -10.39661
N        131.58988       -7.84538       -7.53909
C        131.64383       -7.82221       -6.08041
C        132.65693       -6.87004       -5.47064
O        132.75386       -6.86931       -4.25118
H        130.71122       -7.52750       -7.96709
H        131.84191       -8.85282       -5.71483
H        130.64943       -7.51948       -5.68561
N        133.43880       -6.03746       -6.21837
C        134.47002       -5.17765       -5.64734
C        134.24766       -3.70998       -6.00522
O        133.51531       -3.41105       -6.93755
C        135.82596       -5.66401       -6.20316
C        137.02115       -5.03420       -5.54247
N        137.27348       -5.25622       -4.23172
O        137.78437       -4.34337       -6.20047
H        133.33901       -6.04127       -7.23385
H        134.46233       -5.27337       -4.54047
H        135.84594       -5.47118       -7.30045
H        135.91333       -6.76234       -6.05506
H        136.65188       -5.85774       -3.67132
H        138.10236       -4.84342       -3.78015
N        134.88171       -2.73684       -5.29155
C        134.86045       -1.31806       -5.61607
C        133.47139       -0.71896       -5.69210
O        132.70396       -0.84641       -4.74878
H        135.44731       -3.01698       -4.47589
H        135.39630       -1.15944       -6.57651
H        135.42862       -0.77368       -4.83017
N        133.11770        0.02065       -6.78435
C        131.83041        0.70357       -6.93073
C        130.69840       -0.28624       -7.16401
O        130.94729       -1.48091       -7.20958
C        131.88723        1.68257       -8.13340
C        132.95156        2.74377       -7.98866
C        132.92247        3.64453       -6.90995
C        133.97188        2.85721       -8.94819
C        133.90044        4.63618       -6.79115
C        134.94628        3.85234       -8.82946
C        134.91564        4.74394       -7.75241
O        135.86192        5.69915       -7.65358
H        133.82531        0.15417       -7.52355
H        131.62122        1.29134       -6.01116
H        130.92221        2.21702       -8.24735
H        132.05308        1.09717       -9.06309
H        132.14240        3.58379       -6.16200
H        134.01123        2.18033       -9.79273
H        133.86531        5.32214       -5.95418
H        135.72439        3.93193       -9.57813
H        135.87492        6.33696       -6.92573
N        129.41874        0.17229       -7.35886
C        128.26425       -0.65608       -7.70948
C        128.46156       -1.28376       -9.09135
O        129.52022       -1.84024       -9.34269
C        127.93222       -1.70838       -6.60749
C        126.62041       -2.48439       -6.91196
C        127.85839       -1.06571       -5.21009
C        125.33317       -1.65181       -6.95042
H        129.24256        1.18289       -7.27279
H        127.38857        0.02389       -7.76947
H        128.75007       -2.45844       -6.57228
H        126.48579       -3.27584       -6.14324
H        126.71865       -2.97524       -7.89337
H        128.83175       -0.60831       -4.93636
H        127.08293       -0.27363       -5.16881
H        127.62786       -1.83860       -4.44545
H        125.13655       -1.16581       -5.97439
H        125.36439       -0.88082       -7.74373
H        124.47726       -2.32223       -7.17609
N        127.46959       -1.27636      -10.03066
C        127.61885       -1.90364      -11.34642
C        127.21898       -1.00190      -12.51073
O        127.44146       -1.39802      -13.64404
C        126.75651       -3.17183      -11.38511
O        126.94728       -3.87683      -12.58017
H        126.55258       -0.88868       -9.76379
H        128.67871       -2.20572      -11.50426
H        125.68315       -2.89728      -11.26908
H        127.06919       -3.81162      -10.54606
H        126.42041       -4.71315      -12.48949
N        126.55115        0.17611      -12.32708
C        126.02487        0.94893      -13.45031
C        127.14380        1.58849      -14.26551
O        128.26160        1.64217      -13.76982
C        125.08571        2.03049      -12.89662
H        126.32717        0.49005      -11.37615
H        125.42735        0.25767      -14.07924
H        124.61144        2.63188      -13.68579
H        124.27203        1.54918      -12.31267
H        125.64578        2.71720      -12.22718
N        126.96090        2.13321      -15.50854
C        125.75808        1.99996      -16.33030
C        125.73510        3.07743      -17.41502
O        126.70735        3.17317      -18.15088
C        125.74049        0.62081      -17.00423
H        127.78333        2.58161      -15.94249
H        124.85703        2.06425      -15.70932
H        125.74353       -0.19636      -16.25622
H        124.82187        0.51468      -17.62166
H        126.62770        0.49055      -17.66000
N        124.67102        3.91161      -17.63392
C        123.41116        3.85384      -16.89984
C        123.53836        4.45274      -15.50394
O        122.59679        4.32516      -14.73292
C        122.26124        4.59273      -17.63660
C        121.89185        4.02112      -19.02042
C        122.90737        4.32184      -20.08417
O        123.45912        3.41481      -20.68597
O        123.20463        5.60086      -20.38735
H        124.75950        4.58297      -18.40897
H        123.09684        2.78887      -16.82947
H        122.47532        5.68101      -17.71831
H        121.34845        4.47747      -17.00999
H        120.94088        4.49190      -19.34960
H        121.71934        2.92568      -18.93499
N        124.64016        5.15695      -15.11372
C        124.73054        5.77134      -13.80634
H        125.69041        6.32184      -13.71194
H        123.89577        6.49174      -13.66789
H        124.68286        4.99779      -13.01325
H        125.42885        5.29782      -15.75994
Ca       131.82558       -3.94185       -9.36877
O        132.08745       -1.14526      -10.64979
H        133.01876       -0.81048      -10.63482
H        131.56243       -0.40565      -11.04669
O        134.79919       -2.73898       -9.68261
H        134.59802       -3.17868      -10.54646
H        135.48688       -3.31471       -9.26347
O        131.39438       -3.83806      -12.29121
H        131.86455       -4.69781      -12.43299
H        130.43441       -4.07905      -12.27302

Ca 1.0



