%chk=apoCaM-CA-Ng.loop1.water6.frame589.chk
%nprocshared=20
%mem=10GB
%nosave
#b3lyp/svp scf=(tight,noincore,xqc) Test 
#IOP(5/87=12) Density=Current Pop=(MK,readradii) iop(6/33=2) iop(6/42=6)

apoCaM-CA-Ng.loop1.water6.frame589 

   0  1 
C         71.29243       38.73618        7.86326
C         69.98143       39.11196        8.48910
O         69.91956       39.25140        9.70285
H         72.08227       38.62808        8.63797
H         71.18938       37.77350        7.32118
H         71.60460       39.52738        7.14944
N         68.88156       39.31452        7.70803
C         67.59323       39.73452        8.26065
C         67.00624       38.69823        9.21077
O         67.50381       37.58105        9.26412
C         66.58554       40.08848        7.14297
C         66.16132       38.90652        6.30628
O         64.86428       38.54678        6.26721
O         66.97522       38.28252        5.64459
H         68.99460       39.21905        6.68801
H         67.78603       40.66453        8.84044
H         67.03153       40.86168        6.48017
H         65.67915       40.53090        7.60901
N         65.97288       39.03655       10.04034
C         65.43127       38.12952       11.04718
C         63.91266       38.09525       10.99188
O         63.28887       39.14520       11.06792
C         65.87438       38.59112       12.44192
C         65.62753       37.48165       13.47574
C         65.98155       37.94616       14.88616
C         65.93471       36.76817       15.86644
N         66.19304       37.21811       17.23206
H         65.62077       40.00588       10.01797
H         65.84913       37.10871       10.89795
H         65.35356       39.53557       12.71453
H         66.96901       38.79033       12.42936
H         66.26490       36.61171       13.19772
H         64.56467       37.15435       13.46838
H         65.25717       38.73315       15.19129
H         67.00699       38.37520       14.89977
H         66.70874       36.02369       15.57032
H         64.93953       36.27211       15.82626
H         65.42525       37.85666       17.54304
H         66.22167       36.38715       17.86564
H         67.11080       37.71716       17.28273
N         63.25505       36.90861       10.89772
C         61.80173       36.77843       10.81810
C         61.34453       35.86301       11.95959
O         61.96203       34.81678       12.10835
C         61.51649       36.15692        9.44123
C         60.18479       36.46086        8.83562
O         59.91874       35.94551        7.76591
O         59.35066       37.39922        9.32062
H         63.81703       36.04407       10.84385
H         61.32111       37.77792       10.86823
H         61.69936       35.06160        9.47514
H         62.23092       36.58154        8.70089
N         60.33840       36.13079       12.84521
C         59.38932       37.22625       12.76996
C         58.48005       37.19707       13.98970
O         58.97852       37.42700       15.08268
H         60.21245       35.45687       13.61544
H         58.79130       37.10531       11.84318
H         59.91108       38.20545       12.74218
N         57.15108       36.88828       13.88915
C         56.24701       36.84719       15.04054
C         55.77308       35.42183       15.31405
O         55.19474       34.78797       14.44432
C         55.09195       37.86302       14.86672
C         54.25319       37.69966       13.62468
O         53.50083       36.60029       13.43750
O         54.20911       38.59926       12.80066
H         56.76471       36.65629       12.96165
H         56.77787       37.18450       15.95682
H         55.54788       38.87805       14.84308
H         54.42435       37.82062       15.75510
N         55.98970       34.85895       16.54125
C         55.55132       33.52151       16.91954
C         56.34487       32.38236       16.29850
O         56.02565       31.24416       16.60878
H         56.43534       35.42715       17.27740
H         54.46740       33.41041       16.69923
H         55.68009       33.41471       18.01935
N         57.37941       32.58922       15.43350
C         58.19682       31.51693       14.85238
C         58.98559       32.07512       13.68914
O         59.63778       33.09504       13.85773
C         59.15779       30.84960       15.87986
C         60.15997       31.81572       16.52310
O         58.43630       30.21679       16.90172
H         57.58562       33.55706       15.15085
H         57.52583       30.72713       14.44655
H         59.76440       30.08189       15.34073
H         58.11574       29.35148       16.53440
H         60.80576       31.25776       17.23319
H         60.83501       32.26762       15.76928
H         59.63088       32.62072       17.07426
N         58.92897       31.48970       12.45956
C         59.52695       32.10477       11.27993
C         58.41191       32.60090       10.35851
O         58.69779       33.37146        9.45473
C         60.52052       31.14077       10.56196
C         61.38976       30.30162       11.53887
C         61.41856       31.89930        9.56225
C         62.31025       31.09658       12.46599
H         58.40184       30.60984       12.35000
H         60.09270       33.00563       11.59689
H         59.91900       30.39372        9.99781
H         62.01562       29.59930       10.94569
H         60.72084       29.67651       12.16874
H         62.10661       31.19553        9.04890
H         60.82663       32.41080        8.77957
H         62.02867       32.66644       10.08477
H         63.05917       31.67556       11.89058
H         61.73171       31.78245       13.11218
H         62.85526       30.38593       13.12345
N         57.10660       32.22304       10.55209
C         55.98388       32.75269        9.79717
C         55.35466       31.68247        8.92970
O         55.76312       30.53044        8.97651
C         54.96174       33.40852       10.76792
C         54.29727       32.42051       11.73921
O         55.61673       34.39775       11.51692
H         56.86571       31.53230       11.26806
H         56.34143       33.52831        9.09107
H         54.15933       33.87404       10.14997
H         54.93839       35.08358       11.74893
H         53.55860       32.96267       12.36696
H         53.76247       31.62125       11.18578
H         55.03759       31.96050       12.42551
N         54.37841       32.03983        8.05206
C         53.78981       31.14064        7.07342
C         54.20170       31.63229        5.69997
O         54.87694       30.90001        4.98923
C         52.25013       31.05575        7.27095
C         51.57607       30.19855        6.19584
O         51.65430       32.32842        7.25982
H         54.08493       33.02738        8.02901
H         54.19072       30.10840        7.19306
H         52.05114       30.56248        8.25256
H         51.65604       32.66366        8.19478
H         50.48509       30.13560        6.39588
H         51.71346       30.65272        5.19049
H         51.99843       29.17239        6.19111
N         53.83910       32.87215        5.26963
C         54.20548       33.42415        3.97783
C         54.88155       34.76500        4.18678
O         54.33084       35.60812        4.88326
C         52.93815       33.59704        3.13426
C         53.28148       34.02070        1.69938
C         52.01002       34.26972        0.89166
C         52.34886       34.65237       -0.55262
N         51.13648       34.99371       -1.29337
H         53.25431       33.46138        5.87853
H         54.87746       32.73005        3.42414
H         52.26956       34.34343        3.61721
H         52.40027       32.62388        3.08766
H         53.88722       33.21906        1.21954
H         53.87923       34.95797        1.70817
H         51.44674       35.09949        1.37186
H         51.37461       33.35679        0.88988
H         52.86382       33.79907       -1.04910
H         53.03545       35.52821       -0.55922
H         50.47160       34.18656       -1.29255
H         50.67967       35.82760       -0.85663
H         51.39216       35.22713       -2.27954
N         56.05850       35.05261        3.57160
C         56.74482       36.32911        3.75335
C         57.32104       36.45984        5.18993
O         56.50808       37.32981        5.93292
C         57.84295       36.53749        2.69060
C         57.22774       36.58912        1.27821
C         58.26943       36.85007        0.23198
O         58.98784       37.98873        0.26140
O         58.45423       36.04248       -0.66446
H         56.46630       34.34806        2.93817
H         56.02857       37.16467        3.57587
H         58.61120       35.73924        2.74161
H         58.34209       37.51267        2.88933
H         56.47216       37.40358        1.22760
H         56.71516       35.63007        1.05063
N         57.42139       35.15812        5.87666
C         58.54254       34.35031        5.39162
H         59.51251       34.85755        5.57067
H         58.54233       33.37539        5.92430
H         58.44458       34.12601        4.31364
H         57.56529       35.31044        6.89995
Ca        57.66788       37.73587        7.85304
O         57.03425       39.38419       10.77022
H         56.27409       38.90459       11.18305
H         57.42134       39.91588       11.51002
O         56.85661       40.47644        6.14964
H         57.31160       40.12301        5.34425
H         57.20468       41.39819        6.24721
O         60.04968       39.27926        6.69827
H         60.92484       39.20417        7.15530
H         60.02322       40.20928        6.35979
O         56.38707       36.04633        9.52673
H         57.28479       35.63441        9.46138
H         56.46145       36.65994       10.29807
O         54.68649       38.86146        8.16126
H         54.40597       38.76632        7.21635
H         54.39416       38.01953        8.59260
O         58.56896       41.21881        8.93427
H         58.01146       42.03656        8.96619
H         59.26135       41.36264        9.62735

Ca 1.0



