%chk=apoCaM-CA-Ng.loop1.water2.frame1411.chk
%nprocshared=20
%mem=10GB
%nosave
#b3lyp/svp scf=(tight,noincore,xqc) Test 
#IOP(5/87=12) Density=Current Pop=(MK,readradii) iop(6/33=2) iop(6/42=6)

apoCaM-CA-Ng.loop1.water2.frame1411 

   0  1 
C         61.62147       72.41704      116.84981
C         62.42161       73.68174      116.73356
O         62.80330       74.03163      115.62679
H         60.70010       72.50067      116.23682
H         62.22589       71.56095      116.48121
H         61.33161       72.21412      117.90209
N         62.73672       74.40751      117.84435
C         63.54667       75.61862      117.81745
C         64.86312       75.30822      118.50390
O         65.19328       75.86346      119.54242
C         62.76282       76.78428      118.44546
C         63.53284       78.07559      118.37269
O         63.84902       78.73711      119.50188
O         63.87120       78.53185      117.29149
H         62.42221       74.06533      118.76563
H         63.78752       75.91289      116.77089
H         62.51776       76.54678      119.50310
H         61.81041       76.91948      117.88797
N         65.67301       74.39635      117.90986
C         66.95784       73.93938      118.42209
C         68.11741       74.52738      117.62194
O         68.95448       75.14914      118.26227
C         66.98088       72.39915      118.50622
C         65.99235       71.91644      119.57885
C         65.92545       70.38963      119.66456
C         65.02959       69.96704      120.83830
N         64.89751       68.51337      120.90789
H         65.32398       74.00163      117.03153
H         67.10869       74.31134      119.46192
H         67.99862       72.05880      118.79871
H         66.73527       71.94151      117.52709
H         64.97129       72.29967      119.36122
H         66.32378       72.32464      120.55964
H         66.94382       69.97120      119.81976
H         65.51511       69.99194      118.71016
H         64.01899       70.41915      120.72581
H         65.47564       70.34085      121.78782
H         64.42339       68.15819      120.04605
H         65.83830       68.06752      121.00591
H         64.31562       68.26484      121.74055
N         68.27497       74.48129      116.26505
C         67.37331       73.88968      115.28505
C         66.52154       74.99014      114.65582
O         66.67444       76.15189      115.01075
C         68.16081       73.00273      114.30217
C         69.32859       73.69547      113.67054
O         69.16064       74.65601      112.94243
O         70.57436       73.23472      113.89525
H         69.07185       75.01746      115.88539
H         66.66851       73.19366      115.75053
H         67.48929       72.59873      113.51462
H         68.55925       72.13684      114.87525
N         65.52374       74.67474      113.78597
C         64.52779       75.63131      113.32449
C         65.10939       76.83165      112.56852
O         65.92877       76.37108      111.54645
H         65.40591       73.69256      113.49553
H         63.95597       76.01417      114.19661
H         63.81340       75.09816      112.65737
N         63.99358       77.61350      112.01583
C         64.33443       78.70226      111.07085
C         63.09700       78.99190      110.22602
O         62.02101       78.55223      110.61040
C         64.74830       79.98502      111.83711
C         65.99897       79.80842      112.64273
O         65.96528       79.92645      113.98405
O         67.05853       79.58940      112.08221
H         63.37632       77.96416      112.78685
H         65.13349       78.35794      110.38335
H         63.91738       80.27917      112.51578
H         64.92282       80.83006      111.14616
N         63.10723       79.70632      109.06198
C         64.26319       80.23810      108.35841
C         65.15526       79.15333      107.79225
O         64.65457       78.23320      107.16191
H         62.19460       79.87077      108.60706
H         64.82152       80.97129      108.97159
H         63.88133       80.79998      107.47796
N         66.50871       79.26639      107.89010
C         67.45099       78.33130      107.27210
C         67.47969       77.02689      108.04585
O         67.56932       77.08097      109.26136
C         68.86788       78.95356      107.20624
C         68.87433       80.22110      106.33792
O         69.76291       78.03625      106.62739
H         66.88366       80.09931      108.36963
H         67.15950       78.14253      106.21387
H         69.21234       79.23857      108.22813
H         70.20253       77.54343      107.36826
H         68.20905       81.00663      106.75147
H         69.90152       80.63795      106.28280
H         68.53616       79.98405      105.30528
N         67.43012       75.82178      107.39538
C         67.38720       74.50167      108.03791
C         68.62287       74.21679      108.88566
O         68.92363       74.96830      109.80040
C         66.08715       74.31967      108.86441
C         64.84747       74.54644      107.96592
C         66.04797       72.92582      109.53075
C         63.53556       74.58734      108.74789
H         67.39481       75.83256      106.36460
H         67.34576       73.73566      107.23110
H         66.08184       75.07537      109.65683
H         64.79761       73.75966      107.18158
H         64.93462       75.52989      107.45936
H         66.07073       72.12381      108.76215
H         66.91279       72.78840      110.21082
H         65.14940       72.79938      110.16392
H         63.57591       75.39293      109.51268
H         62.70170       74.80349      108.04843
H         63.32038       73.61933      109.24070
N         69.33745       73.07422      108.67431
C         70.48996       72.69132      109.48460
C         71.75144       72.59384      108.65697
O         72.80900       72.41672      109.24915
C         70.22194       71.34972      110.22252
C         70.07794       70.14978      109.27799
O         69.05005       71.44025      110.98326
H         69.02839       72.43565      107.92848
H         70.68250       73.47019      110.25580
H         71.08249       71.12349      110.89605
H         69.23892       72.08238      111.70772
H         69.91492       69.22766      109.87545
H         69.20957       70.27515      108.59987
H         70.99701       70.00699      108.67214
N         71.73133       72.64792      107.29201
C         72.94240       72.52176      106.50317
C         73.68745       73.83273      106.64888
O         73.24983       74.82165      106.07851
C         72.57797       72.15653      105.03679
C         73.79880       71.79976      104.19044
O         71.67317       71.07640      105.00845
H         70.83828       72.73922      106.78998
H         73.52679       71.66887      106.91809
H         72.05906       73.02440      104.57375
H         72.04586       70.34380      105.56611
H         74.31046       70.91065      104.61860
H         73.46730       71.54786      103.15969
H         74.51030       72.64804      104.14348
N         74.71436       73.93814      107.54166
C         75.30743       75.19612      107.99392
C         74.27028       76.05745      108.70700
O         73.26004       76.40771      108.11343
C         75.99110       76.00148      106.87818
C         77.02670       75.17644      106.10781
C         77.85469       76.08985      105.19844
C         78.81100       75.28374      104.31477
N         79.66521       76.17601      103.53179
H         75.04656       73.07988      108.00737
H         76.10748       74.94044      108.72544
H         76.50114       76.86029      107.37176
H         75.25099       76.41327      106.15953
H         76.49357       74.40601      105.50870
H         77.71837       74.66634      106.81444
H         78.43959       76.78596      105.84074
H         77.18379       76.68819      104.54415
H         78.21361       74.64223      103.62865
H         79.45159       74.62687      104.94383
H         80.28072       76.72825      104.17291
H         80.26677       75.60513      102.89564
H         79.08285       76.82758      102.95706
N         74.47375       76.46928      109.98823
C         73.50991       77.30504      110.69602
C         72.37901       76.46103      111.26574
O         71.24672       76.71404      110.87930
C         74.18697       78.21963      111.73869
C         75.17242       79.18111      111.05092
C         75.81824       80.10250      112.04161
O         76.57764       79.60163      113.03435
O         75.67418       81.31055      111.94173
H         75.36727       76.23405      110.44389
H         73.05428       78.02107      109.97176
H         74.71565       77.63806      112.51744
H         73.40061       78.82674      112.24109
H         74.62495       79.78246      110.29022
H         75.97118       78.60979      110.53246
N         72.53591       75.43990      112.16016
C         73.77661       74.94982      112.72438
H         74.66903       75.48451      112.37701
H         73.73299       75.03154      113.83072
H         73.89998       73.88032      112.45314
H         71.68728       74.94591      112.46291
Ca        68.03019       77.00629      112.13923
O         69.97230       78.20280      114.07873
H         69.65976       79.14010      114.01128
H         70.93720       78.24490      113.86089
O         69.82617       79.55575      111.03648
H         69.81565       80.52237      111.25076
H         70.58676       79.44706      110.41255

Ca 1.0



