%chk=apoCaM-CA-Ng.loop4.water3.frame424.chk
%nprocshared=20
%mem=10GB
%nosave
#b3lyp/svp scf=(tight,noincore,xqc) Test 
#IOP(5/87=12) Density=Current Pop=(MK,readradii) iop(6/33=2) iop(6/42=6)

apoCaM-CA-Ng.loop4.water3.frame424 

   -3  1 
C         61.82784       75.22814       72.08319
C         60.43870       74.67332       72.00391
O         59.97975       74.38474       70.91168
H         62.27618       75.31467       71.06971
H         61.80781       76.23040       72.55775
H         62.45865       74.54470       72.69014
N         59.72160       74.46738       73.14413
C         58.39903       73.85660       73.19215
C         58.45634       72.43472       72.66268
O         58.09437       72.19530       71.52531
C         57.25220       74.77345       72.67745
C         57.25908       75.18730       71.23375
O         57.06914       74.36842       70.35279
O         57.38455       76.48897       70.91009
H         60.16234       74.70957       74.04464
H         58.12598       73.75024       74.26652
H         57.28606       75.70096       73.28957
H         56.27592       74.28091       72.88079
N         58.97671       71.45887       73.47079
C         59.11118       70.02132       73.20677
C         57.75558       69.31721       73.21075
O         57.51452       68.52087       74.10761
C         59.98350       69.69154       71.96194
C         60.25450       68.16409       71.81987
C         61.31073       70.46951       71.99642
C         61.00853       67.51540       72.99157
H         59.32352       71.76545       74.39309
H         59.66151       69.62385       74.08644
H         59.44569       70.01120       71.04531
H         60.85437       67.99655       70.90031
H         59.29122       67.62616       71.68802
H         61.12502       71.56225       71.94341
H         61.88525       70.25753       72.92036
H         61.93595       70.19472       71.12699
H         61.99928       67.98829       73.14736
H         60.42521       67.56879       73.93265
H         61.17854       66.44076       72.77181
N         56.81038       69.58019       72.26976
C         55.44877       69.07568       72.32595
C         55.28463       67.66820       71.75494
O         54.72854       66.85448       72.47891
C         54.47637       70.07064       71.65422
C         54.44179       71.41890       72.34019
O         53.69846       72.28879       71.91648
O         55.20019       71.67561       73.42582
H         57.01395       70.26468       71.54185
H         55.11502       69.05231       73.39090
H         53.44652       69.65274       71.69970
H         54.75426       70.21922       70.59253
N         55.63612       67.26062       70.49294
C         56.45747       67.96776       69.52175
C         55.64897       68.61046       68.41096
O         54.43616       68.68795       68.54438
H         55.37132       66.30074       70.22115
H         57.16391       67.22531       69.09369
H         57.08288       68.71830       70.01075
N         56.21545       69.12089       67.26992
C         57.61750       68.95925       66.86461
C         58.60601       69.49379       67.88650
O         58.22320       70.31923       68.70230
C         57.85080       69.56747       65.45420
C         57.54670       71.03939       65.37692
O         58.26394       71.92288       66.09154
O         56.66171       71.44355       64.64001
H         55.57622       69.58152       66.60315
H         57.78669       67.86295       66.79943
H         57.19200       69.02838       64.73901
H         58.89351       69.42787       65.10969
N         59.88217       69.01532       67.99034
C         60.53155       68.08534       67.07431
C         60.77845       66.73696       67.69403
O         60.30018       66.46555       68.78630
H         60.44705       69.33868       68.78808
H         61.49704       68.53660       66.76158
H         59.94943       67.89084       66.15972
N         61.53561       65.82851       67.01467
C         61.80535       64.47650       67.49416
C         63.20380       64.34996       68.08377
O         63.46635       63.33007       68.70660
C         61.43013       63.41342       66.42529
C         62.00477       63.63014       65.01171
C         63.49931       63.56102       64.94803
N         64.14726       62.39941       65.17876
O         64.13303       64.55828       64.64704
H         61.97805       66.13779       66.13670
H         61.15333       64.26551       68.37065
H         60.32529       63.44947       66.30564
H         61.68597       62.39782       66.79834
H         61.65540       64.60776       64.62029
H         61.59665       62.85951       64.32259
H         63.62964       61.53910       65.40747
H         65.16961       62.35711       65.09237
N         64.10081       65.38119       68.04848
C         65.28141       65.44147       68.91186
C         66.60411       65.45144       68.15898
O         67.63121       65.50917       68.82113
C         65.16982       66.68666       69.84956
C         63.93051       66.58849       70.75324
C         65.14479       68.02654       69.08556
H         63.89438       66.20603       67.47134
H         65.32771       64.54334       69.56673
H         66.06067       66.69805       70.51589
H         62.99544       66.58805       70.15343
H         63.96864       65.65723       71.35694
H         63.89609       67.45160       71.45192
H         64.23803       68.13041       68.45439
H         65.13902       68.86922       69.80837
H         66.04310       68.13334       68.44266
N         66.67629       65.38169       66.80063
C         67.93939       65.40548       66.06759
C         68.03076       66.60991       65.14377
O         69.05140       66.73476       64.47928
C         68.09796       64.10291       65.25333
C         68.19490       62.87814       66.13193
N         69.20598       62.73858       67.02029
O         67.36725       61.98810       66.02461
H         65.81037       65.30852       66.25447
H         68.80380       65.49035       66.76022
H         69.03111       64.14636       64.65060
H         67.24093       64.00651       64.54924
H         69.93017       63.46380       67.11886
H         69.27067       61.89264       67.60598
N         67.04282       67.55088       65.05275
C         67.13310       68.69204       64.14031
C         66.02430       69.71414       64.34217
O         65.03138       69.41097       64.98321
C         67.16332       68.21080       62.66267
C         66.15545       67.11076       62.35071
C         66.62643       65.85059       61.93273
C         64.76574       67.30212       62.47016
C         65.73708       64.81318       61.64250
C         63.87598       66.26141       62.17710
C         64.35715       65.01519       61.76256
O         63.48792       64.01913       61.49513
H         66.21189       67.46438       65.65369
H         68.06789       69.24709       64.37826
H         68.17885       67.81342       62.46158
H         67.03524       69.06588       61.96580
H         67.68824       65.66413       61.83284
H         64.35747       68.24478       62.79222
H         66.12347       63.85200       61.32705
H         62.80958       66.42037       62.28043
H         63.78271       63.13821       61.22213
N         66.15893       70.95676       63.77430
C         65.20525       72.07062       63.81236
C         65.10990       72.78846       65.16077
O         65.34274       73.98992       65.18954
C         63.81829       71.67174       63.27103
C         63.91282       71.16334       61.82255
C         62.55767       70.83518       61.26948
O         62.27888       69.58161       60.86433
O         61.70835       71.70613       61.16614
H         67.01059       71.12513       63.21648
H         65.58714       72.84689       63.10825
H         63.16851       72.57545       63.28305
H         63.34326       70.90496       63.91828
H         64.55321       70.25994       61.78239
H         64.37954       71.93922       61.17802
N         64.73379       72.15222       66.30327
C         64.48587       72.83072       67.57471
C         65.72812       73.49441       68.16070
O         65.58582       74.20533       69.14725
C         63.94872       71.83325       68.63535
C         62.73477       70.99715       68.19891
C         61.50852       71.80804       67.92896
O         61.00476       71.79953       66.81775
O         60.90043       72.46676       68.92964
H         64.56112       71.15624       66.25447
H         63.71447       73.61161       67.38919
H         63.69220       72.37881       69.57114
H         64.76358       71.11555       68.87254
H         62.50707       70.27196       68.99886
H         62.96438       70.38140       67.31106
N         66.97755       73.28896       67.65384
C         68.15006       73.89362       68.24828
H         69.06013       73.58256       67.69285
H         68.06876       75.00051       68.21220
H         68.25126       73.56325       69.30461
H         67.12201       72.67021       66.84440
Ca        58.83057       73.26984       68.54176
O         60.24770       75.49399       67.25907
H         60.17500       74.68670       66.68977
H         60.95010       75.26881       67.91994
O         56.64379       75.07142       67.15959
H         57.13139       75.90194       66.93019
H         55.91844       75.36769       67.76507
O         55.59663       72.24972       68.37080
H         55.82685       72.26212       67.40844
H         54.72117       72.70924       68.41886

Ca 1.0



