%chk=apoCaM-CA-Ng.loop3.water4.frame161.chk
%nprocshared=20
%mem=10GB
%nosave
#b3lyp/svp scf=(tight,noincore,xqc) Test 
#IOP(5/87=12) Density=Current Pop=(MK,readradii) iop(6/33=2) iop(6/42=6)

apoCaM-CA-Ng.loop3.water4.frame161 

   0  1 
C         42.52092       60.66774       32.05418
C         41.27548       60.51656       31.23049
O         40.78980       61.51349       30.72202
H         43.33358       61.08758       31.42542
H         42.32333       61.35709       32.90206
H         42.85884       59.69272       32.46449
N         40.68731       59.29435       31.08275
C         39.46704       59.02768       30.32191
C         38.26539       59.82641       30.81340
O         37.35498       60.09009       30.04043
C         39.70462       59.03524       28.79271
C         40.18787       60.33566       28.22642
O         39.48957       61.33600       28.26788
O         41.40356       60.39132       27.65150
H         41.11101       58.49046       31.57128
H         39.19117       57.97085       30.53755
H         38.77611       58.73517       28.26080
H         40.47564       58.26383       28.57486
N         38.16233       60.14910       32.13282
C         36.98106       60.73020       32.75928
C         37.24255       62.13791       33.27879
O         36.36711       62.66758       33.95059
C         36.55644       59.78567       33.91029
C         36.01148       58.45081       33.36453
C         35.70814       57.41938       34.46375
C         36.99012       56.80574       35.05524
N         36.67321       55.78265       36.05126
H         38.95221       59.92938       32.75860
H         36.13099       60.82337       32.04729
H         35.74700       60.24513       34.51906
H         37.43255       59.62939       34.57462
H         36.71128       57.98983       32.63479
H         35.06525       58.68243       32.82754
H         35.12884       56.59115       34.00053
H         35.07933       57.87799       35.25826
H         37.62221       57.58611       35.52770
H         37.57472       56.33582       34.23197
H         37.56273       55.35061       36.39182
H         36.17351       56.21501       36.86154
H         36.07862       55.03387       35.62680
N         38.38034       62.83633       32.97883
C         38.61854       64.18761       33.47830
C         37.51291       65.13236       33.02266
O         37.26767       65.23226       31.82820
C         40.00141       64.73054       33.02999
C         40.34374       66.01162       33.76073
O         39.56868       66.47458       34.58307
O         41.51194       66.65265       33.57728
H         39.09846       62.40339       32.38440
H         38.63649       64.12423       34.58965
H         40.01708       64.89087       31.92881
H         40.78501       63.98535       33.28528
N         36.78775       65.84030       33.93743
C         35.64759       66.66458       33.57617
C         35.94801       67.86747       32.69863
O         34.98132       68.44508       32.22289
H         37.00459       65.73614       34.94039
H         35.14195       67.03337       34.49561
H         34.92542       66.01182       33.03979
N         37.21235       68.33402       32.45141
C         37.46502       69.46539       31.54865
C         38.42925       69.11240       30.41223
O         38.67773       69.97044       29.57502
C         37.94809       70.70639       32.32387
C         39.36815       70.58966       32.79863
N         40.31384       71.42759       32.31651
O         39.67339       69.72918       33.60722
H         38.01041       67.89275       32.92764
H         36.51106       69.77527       31.07063
H         37.26962       70.91477       33.17948
H         37.87835       71.57740       31.63526
H         40.08117       72.16262       31.63171
H         41.28885       71.32868       32.61530
N         38.98807       67.87420       30.29412
C         39.83843       67.47929       29.18643
C         41.21537       68.10568       29.20877
O         41.60603       68.72056       28.22800
H         38.75591       67.13827       30.97251
H         39.31619       67.68030       28.22557
H         40.00400       66.38097       29.24777
N         42.04412       67.88135       30.26741
C         43.47748       68.17954       30.26567
C         43.83157       69.11173       31.39776
O         43.48663       68.80754       32.53067
C         44.23666       66.84997       30.45402
C         43.84841       65.86595       29.38116
C         44.22368       66.08363       28.04638
C         43.07365       64.73912       29.70594
C         43.82436       65.19075       27.04973
C         42.66548       63.85509       28.70483
C         43.03829       64.08134       27.37177
O         42.64275       63.24872       26.39003
H         41.66468       67.37084       31.07836
H         43.79590       68.63312       29.30153
H         43.96108       66.43639       31.44838
H         45.33821       67.00451       30.45033
H         44.82191       66.94499       27.77753
H         42.76458       64.55802       30.72893
H         44.11632       65.36645       26.02251
H         42.05461       63.00196       28.96528
H         42.06931       62.49112       26.55985
N         44.53707       70.26149       31.16844
C         44.87525       71.19585       32.23490
C         44.12560       72.48229       31.96340
O         43.19504       72.78045       32.69334
C         46.41372       71.39209       32.38354
C         47.18457       70.05101       32.52415
C         46.73462       72.33760       33.55818
C         46.83047       69.20672       33.75245
H         44.82286       70.49529       30.20575
H         44.51862       70.79601       33.19419
H         46.80743       71.86397       31.45873
H         48.27448       70.27027       32.56135
H         47.00646       69.43524       31.61626
H         46.35316       71.93084       34.51835
H         47.83192       72.48770       33.64398
H         46.26790       73.33251       33.40109
H         47.44039       68.27847       33.74158
H         47.05304       69.74929       34.69297
H         45.76465       68.91051       33.74346
N         44.44454       73.27247       30.90298
C         43.66646       74.44035       30.50287
C         43.49608       75.45562       31.62026
O         42.35768       75.77566       31.93183
C         44.30358       75.11266       29.27763
O         44.36899       74.19548       28.21857
H         45.25464       73.00482       30.32395
H         42.65155       74.09379       30.20039
H         45.32581       75.46664       29.54657
H         43.68262       75.98084       28.96494
H         45.04359       74.54727       27.58184
N         44.56924       76.00911       32.26166
C         44.46187       77.06678       33.27296
C         43.67414       76.67094       34.52237
O         43.46444       77.53989       35.36261
C         43.85799       78.32932       32.63225
H         45.51569       75.69885       31.99723
H         45.48701       77.34162       33.60519
H         42.81157       78.16831       32.30171
H         43.86024       79.17189       33.35648
H         44.46512       78.63312       31.75325
N         43.20534       75.40764       34.72931
C         42.35719       75.02815       35.85051
C         42.99352       73.94325       36.69533
O         44.06093       73.44966       36.35427
C         41.01428       74.53177       35.29744
H         43.43498       74.67228       34.05538
H         42.16403       75.90361       36.50889
H         40.31451       74.26022       36.11468
H         40.53902       75.32795       34.68630
H         41.16861       73.63765       34.65354
N         42.37635       73.54716       37.84431
C         42.81895       72.49107       38.75131
C         44.32594       72.48928       38.94843
O         44.96270       71.46478       38.74139
C         42.25987       71.10749       38.32407
C         40.74687       71.15955       38.07353
C         40.10834       69.80278       37.92925
O         40.38210       68.93672       36.93035
O         39.24919       69.48197       38.73465
H         41.51717       74.04880       38.12273
H         42.36071       72.70993       39.74245
H         42.47272       70.39021       39.14773
H         42.76066       70.74133       37.41338
H         40.52748       71.77030       37.17143
H         40.27167       71.65661       38.94891
N         44.96407       73.63206       39.32352
C         46.40156       73.72273       39.48619
H         46.80401       74.46620       38.76639
H         46.63639       74.05328       40.51843
H         46.91265       72.75377       39.30306
H         44.41129       74.48865       39.47749
Ca        41.60050       68.30509       35.12280
O         44.34440       66.10437       34.26133
H         45.15237       66.35517       33.74724
H         43.93911       65.36537       33.74120
O         44.00893       68.11945       36.97235
H         44.62760       68.88775       37.05619
H         43.35091       68.24908       37.70083
O         43.02257       70.63005       35.04250
H         43.54552       71.46144       35.12409
H         42.16390       70.91845       34.64966
O         41.28723       65.81581       37.00542
H         42.12593       65.66795       36.50007
H         41.55908       66.36231       37.78481

Ca 1.0



