%chk=apoCaM-CA-Ng.loop2.water3.frame368.chk
%nprocshared=20
%mem=10GB
%nosave
#b3lyp/svp scf=(tight,noincore,xqc) Test 
#IOP(5/87=12) Density=Current Pop=(MK,readradii) iop(6/33=2) iop(6/42=6)

apoCaM-CA-Ng.loop2.water3.frame368 

   -2  1 
C         35.62575       82.22546       23.66705
C         34.70917       81.07015       23.39375
O         33.51292       81.28134       23.25269
H         36.39739       82.29038       22.87275
H         35.05744       83.18024       23.69664
H         36.12260       82.08029       24.64971
N         35.21143       79.80474       23.32273
C         34.38247       78.61865       23.11888
C         34.46522       77.71661       24.33195
O         35.36576       77.89562       25.14185
C         34.79498       77.89091       21.82585
C         36.22893       77.42282       21.84508
O         37.02861       77.86384       21.03518
O         36.63496       76.50503       22.74302
H         36.22613       79.67647       23.45002
H         33.31762       78.92171       23.01775
H         34.65380       78.59641       20.97753
H         34.13520       77.01402       21.65533
N         33.51448       76.76055       24.56470
C         33.51557       75.95615       25.78840
C         33.46656       76.85553       27.01828
O         33.31181       78.06041       26.87136
C         32.36375       74.94696       25.78518
H         32.75906       76.63245       23.87344
H         34.47342       75.39044       25.81872
H         32.40014       74.30755       26.69224
H         31.38523       75.47067       25.75008
H         32.44976       74.28515       24.89647
N         33.67354       76.35347       28.26733
C         34.04372       77.23196       29.37715
C         32.89305       77.44221       30.35098
O         31.81688       76.89491       30.15284
C         35.29811       76.67332       30.09599
C         36.30452       76.00878       29.17589
O         36.55395       74.82682       29.35186
O         36.91175       76.63189       28.14435
H         33.76307       75.33356       28.39404
H         34.32915       78.23156       28.97899
H         34.96089       75.88596       30.80676
H         35.78285       77.47639       30.69193
N         33.07035       78.23403       31.44677
C         32.04953       78.49097       32.45208
C         30.92023       79.35922       31.94647
O         30.86764       79.67366       30.76494
H         33.99554       78.66049       31.60326
H         32.52819       79.05555       33.28141
H         31.66135       77.53607       32.86800
N         29.99212       79.83057       32.83200
C         28.90674       80.73767       32.45173
C         29.45069       82.04166       31.87233
O         30.65847       82.24003       31.84456
C         27.99216       81.03210       33.66556
C         27.34319       79.78125       34.20843
N         26.49835       79.05050       33.44304
O         27.57294       79.43208       35.35673
H         30.07615       79.53978       33.81896
H         28.30406       80.24556       31.65797
H         27.17784       81.73134       33.38134
H         28.59663       81.51878       34.46365
H         26.27950       79.33433       32.47724
H         26.05333       78.20029       33.81967
N         28.60013       82.96062       31.33047
C         29.06771       84.13298       30.60645
C         29.84305       85.12073       31.44589
O         29.96326       84.95380       32.65204
H         27.58533       82.78035       31.34725
H         28.20062       84.66655       30.16126
H         29.72028       83.78559       29.77630
N         30.42795       86.18371       30.82267
C         31.24168       87.18428       31.50127
C         32.68631       87.03723       31.05133
O         33.54555       86.84858       31.90181
C         30.66349       88.61871       31.31279
C         30.69646       89.19118       29.88581
O         29.35367       88.67486       31.82109
H         30.31635       86.26250       29.80064
H         31.22584       87.00725       32.60081
H         31.28085       89.30932       31.92837
H         28.76312       88.18016       31.19418
H         30.13184       88.55069       29.17677
H         30.24192       90.20427       29.88052
H         31.74018       89.31590       29.53973
N         33.02921       87.06737       29.72802
C         34.40303       86.87400       29.26114
C         34.83336       85.44228       29.57600
O         33.97926       84.62834       29.90806
C         34.50737       87.20312       27.72292
C         33.96600       88.61904       27.36395
C         35.92921       87.05262       27.14614
C         34.66624       89.78147       28.07112
H         32.28396       87.19976       29.03358
H         35.05668       87.57570       29.82315
H         33.86573       86.48022       27.17083
H         32.88480       88.68848       27.58683
H         34.05378       88.76887       26.26554
H         36.65653       87.68847       27.69322
H         36.26450       85.99903       27.16650
H         35.94272       87.33956       26.07336
H         34.21066       90.73646       27.73415
H         34.53428       89.71354       29.17023
H         35.74668       89.80978       27.82583
N         36.13938       85.05780       29.49569
C         36.57571       83.68560       29.71301
C         37.59819       83.59092       30.84678
O         38.19836       82.54310       31.02921
C         37.09712       83.12893       28.37032
C         37.15529       81.62246       28.35063
O         36.86584       80.96522       29.33882
O         37.41588       80.96843       27.20966
H         36.85991       85.75346       29.25152
H         35.70693       83.05079       29.99352
H         38.07014       83.58954       28.09438
H         36.35661       83.39689       27.58462
N         37.78630       84.63259       31.70670
C         38.69091       84.57227       32.84786
C         40.13585       84.61812       32.37220
O         40.49269       85.59300       31.72652
C         38.36155       85.75290       33.79655
C         39.15276       85.77685       35.08541
C         40.51876       86.11254       35.09325
C         38.51292       85.49967       36.30774
C         41.22770       86.16495       36.29629
C         39.22760       85.54787       37.50806
C         40.58360       85.88163       37.50253
H         37.21122       85.47931       31.59593
H         38.47077       83.65138       33.42801
H         37.28137       85.65017       34.04701
H         38.48050       86.73036       33.28034
H         41.03697       86.35429       34.17676
H         37.46068       85.24424       36.33481
H         42.27616       86.43289       36.29301
H         38.72795       85.33128       38.44344
H         41.13384       85.92603       38.43323
N         41.04964       83.64281       32.68076
C         42.46967       83.77153       32.38676
C         42.81736       83.52440       30.93041
O         43.96108       83.77157       30.56937
C         43.11230       82.73624       33.31603
C         42.06545       81.63971       33.32704
C         40.77223       82.44586       33.44680
H         42.83750       84.78278       32.67011
H         44.14422       82.42510       33.04468
H         43.13498       83.15876       34.34677
H         42.08682       81.15143       32.32544
H         42.19208       80.85578       34.10325
H         39.93303       81.84548       33.03442
H         40.56141       82.74168       34.49826
N         41.92250       83.01312       30.04019
C         42.25915       82.81004       28.63654
C         42.37523       84.15445       27.95269
O         43.43539       84.45782       27.42412
C         41.22174       81.90267       27.94480
C         41.31281       80.47801       28.52230
C         40.33117       79.53943       27.89702
O         40.34852       79.33076       26.69450
O         39.45502       78.88258       28.67845
H         40.98529       82.73714       30.36968
H         43.23713       82.28017       28.55645
H         41.45093       81.84976       26.85694
H         40.19799       82.31631       28.06860
H         41.13135       80.49626       29.61791
H         42.33408       80.07637       28.34444
N         41.32487       85.02305       27.95170
C         41.37998       86.33974       27.34844
H         41.19632       87.10733       28.12939
H         42.36374       86.55175       26.87862
H         40.59403       86.42221       26.56974
H         40.44558       84.75029       28.41545
Ca        36.99100       78.77113       27.45238
O         34.45409       81.01674       26.85033
H         34.44677       80.26027       26.21298
H         33.88368       80.71768       27.60194
O         38.22286       76.36387       25.55301
H         38.34021       77.03200       24.83236
H         38.36922       75.49017       25.11117
O         38.80763       79.78567       24.16608
H         38.68339       79.28501       23.32080
H         38.82588       80.73689       23.89214

Ca 1.0



