%chk=apoCaM-CA-Ng.loop1.water3.frame200.chk
%nprocshared=20
%mem=10GB
%nosave
#b3lyp/svp scf=(tight,noincore,xqc) Test 
#IOP(5/87=12) Density=Current Pop=(MK,readradii) iop(6/33=2) iop(6/42=6)

apoCaM-CA-Ng.loop1.water3.frame200 

   0  1 
C         15.41420       10.00388       30.70821
C         16.65950       10.23639       31.51161
O         17.75487       10.12120       30.98051
H         14.79842       10.92884       30.70270
H         15.66072        9.73172       29.66087
H         14.82451        9.18233       31.16686
N         16.55281       10.59216       32.81934
C         17.69834       10.90105       33.67017
C         18.60579        9.70665       33.99775
O         19.56476        9.92376       34.71622
C         17.23275       11.62955       34.95417
C         16.40863       10.81778       35.91210
O         16.83192       10.67459       37.17958
O         15.33345       10.34613       35.58068
H         15.60085       10.72590       33.19121
H         18.32102       11.65151       33.13477
H         16.65221       12.53301       34.66516
H         18.13238       11.97158       35.49796
N         18.42170        8.44769       33.49803
C         19.31656        7.32158       33.78981
C         20.10614        6.91741       32.54832
O         19.47017        6.70097       31.52566
C         18.50637        6.07029       34.21482
C         18.09748        5.96432       35.68693
C         17.17462        7.05716       36.22832
C         16.79904        6.70481       37.68154
N         15.94338        7.71922       38.28814
H         17.64240        8.26925       32.85155
H         20.02059        7.57774       34.58691
H         19.15995        5.17761       34.07772
H         17.63258        5.93449       33.54043
H         19.01989        5.92309       36.30179
H         17.58437        4.98372       35.80025
H         16.25292        7.11485       35.61039
H         17.69455        8.03686       36.19593
H         17.71966        6.59776       38.29684
H         16.26601        5.72808       37.69373
H         15.67531        7.40615       39.24916
H         16.46965        8.61419       38.37509
H         15.07828        7.85643       37.71751
N         21.46136        6.66756       32.53338
C         22.44355        6.83116       33.61568
C         22.04627        6.11008       34.90452
O         21.79976        6.77556       35.89925
C         22.78424        8.32149       33.85073
C         23.37687        9.00285       32.64283
O         23.46367        8.43633       31.56436
O         23.82248       10.26465       32.75625
H         21.84519        6.29707       31.64939
H         23.41169        6.39082       33.28782
H         23.54914        8.37506       34.65593
H         21.89431        8.89181       34.17839
N         21.99754        4.75557       35.02174
C         22.49926        3.84399       34.00834
C         22.42366        2.38612       34.45603
O         21.70605        2.08775       35.40033
H         21.68555        4.37989       35.93029
H         23.57120        4.10891       33.88704
H         21.97142        3.96956       33.03942
N         23.18684        1.40277       33.89264
C         24.16688        1.62643       32.83608
C         25.56385        1.64823       33.42799
O         25.73798        1.34104       34.60032
C         24.01994        0.60816       31.68361
C         24.32610       -0.81753       32.07290
O         23.56476       -1.46751       32.97307
O         25.25338       -1.40687       31.54097
H         23.14098        0.46976       34.32646
H         24.00826        2.62402       32.38267
H         24.71557        0.90509       30.86816
H         22.98829        0.65818       31.27453
N         26.60575        2.09052       32.67556
C         27.95071        2.26427       33.19282
C         27.97462        3.23894       34.35034
O         28.54494        2.92194       35.38483
H         26.43153        2.37052       31.69819
H         28.58212        2.68510       32.38029
H         28.38418        1.28538       33.49287
N         27.36899        4.45531       34.23496
C         27.41536        5.48518       35.27583
C         26.80097        5.00455       36.59059
O         26.11877        3.98950       36.61218
C         26.68219        6.77187       34.79209
C         27.31201        7.38285       33.53718
O         26.70185        7.75428       35.79303
H         26.87482        4.65291       33.35288
H         28.48665        5.71772       35.46704
H         25.62741        6.48291       34.56037
H         25.81673        8.20373       35.78136
H         28.36084        7.68369       33.74345
H         27.30056        6.68757       32.67582
H         26.73302        8.28399       33.24543
N         27.03682        5.70762       37.74000
C         26.49604        5.35777       39.05285
C         25.58110        6.47462       39.58128
O         24.89554        6.23639       40.56620
C         27.69391        5.06478       40.02298
C         28.63331        3.94701       39.48703
C         27.27293        4.74951       41.47231
C         28.00355        2.55279       39.40310
H         27.66655        6.52209       37.68949
H         25.85786        4.45282       38.96727
H         28.31122        5.99037       40.07143
H         29.52240        3.87813       40.15211
H         29.00817        4.22593       38.47935
H         26.76782        5.61554       41.94279
H         26.59632        3.87207       41.51771
H         28.17252        4.54555       42.09272
H         27.13245        2.54396       38.71923
H         28.75618        1.83621       39.01174
H         27.69003        2.19510       40.40512
N         25.51542        7.71194       38.99836
C         24.68290        8.80423       39.49226
C         23.76578        9.32384       38.39191
O         24.23964        9.77480       37.35866
C         25.55896        9.93349       40.09778
C         26.62628       10.50291       39.15344
O         26.21143        9.44713       41.24290
H         26.10596        7.92565       38.19017
H         24.04057        8.45225       40.32923
H         24.89257       10.78214       40.38616
H         25.56942        9.52380       41.99737
H         26.18078       10.94207       38.24052
H         27.18362       11.30950       39.67477
H         27.35889        9.72001       38.86551
N         22.41608        9.29130       38.56550
C         21.45884        9.80258       37.58749
C         21.59907       11.30508       37.40571
O         21.74773       11.99039       38.40543
C         20.00138        9.45327       38.01212
C         19.49600       10.18211       39.26326
O         19.89549        8.07472       38.23848
H         22.05233        8.87096       39.43365
H         21.62634        9.28770       36.61769
H         19.30569        9.74511       37.19598
H         19.95659        7.64262       37.35201
H         18.45961        9.85140       39.48680
H         20.13221        9.96466       40.14444
H         19.45696       11.27791       39.09622
N         21.49739       11.88877       36.17040
C         21.47245       13.34899       35.97840
C         21.45253       13.82200       34.50412
O         21.63416       15.01419       34.30126
C         20.22995       13.94766       36.71409
C         20.19884       15.47552       36.91856
C         21.37407       16.04372       37.73761
C         21.51237       15.40448       39.13082
N         22.58949       16.02879       39.89556
H         21.43470       11.24823       35.38028
H         22.41279       13.72459       36.43453
H         20.10833       13.50855       37.71892
H         19.31917       13.66124       36.15738
H         19.25348       15.71804       37.45293
H         20.15209       15.99963       35.94351
H         21.19909       17.13437       37.86111
H         22.32259       15.91371       37.17592
H         21.74756       14.33031       39.02504
H         20.55677       15.50189       39.69177
H         22.68513       15.53507       40.81280
H         23.49352       15.94941       39.37537
H         22.36599       17.03444       40.07237
N         21.24754       12.99884       33.42671
C         21.25390       13.48254       32.04511
C         20.08979       14.41833       31.78783
O         18.94729       14.00866       31.94563
C         21.18885       12.28673       31.06892
C         21.32515       12.64903       29.57603
C         22.52748       13.50044       29.22189
O         23.79350       13.13253       29.52169
O         22.34960       14.55827       28.63913
H         21.09546       11.99467       33.55448
H         22.22265       13.99970       31.86880
H         20.24052       11.72303       31.21269
H         21.99183       11.58740       31.33704
H         20.40565       13.18492       29.25273
H         21.37808       11.70021       29.00017
N         20.30817       15.69039       31.35822
C         19.22001       16.59483       31.05667
H         18.59691       16.75808       31.96113
H         19.62268       17.57231       30.71638
H         18.59059       16.17072       30.24457
H         21.27409       16.02530       31.22433
Ca        24.31267       11.41854       30.88557
O         25.40724       13.93857       32.33349
H         25.22756       13.23511       33.00697
H         26.24349       13.64916       31.88870
O         27.04364       10.99176       32.87736
H         27.95231       10.97029       32.48475
H         27.19495       11.10379       33.84942
O         26.83027        8.78544       30.43083
H         26.54345        7.84864       30.28717
H         27.74020        8.70990       30.81435

Ca 1.0



