%chk=apoCaM-CA-Ng.loop3.water8.frame1177.chk
%nprocshared=20
%mem=10GB
%nosave
#b3lyp/svp scf=(tight,noincore,xqc) Test 
#IOP(5/87=12) Density=Current Pop=(MK,readradii) iop(6/33=2) iop(6/42=6)

apoCaM-CA-Ng.loop3.water8.frame1177 

   0  1 
C        -11.02822       51.22960        3.22309
C        -11.30740       50.05022        2.34144
O        -11.31253       50.21568        1.13330
H        -10.03473       51.65361        2.96585
H        -11.80657       52.00454        3.06152
H        -11.02628       50.94308        4.29535
N        -11.56488       48.82331        2.87427
C        -11.81818       47.63832        2.06088
C        -12.90988       47.86978        1.02001
O        -12.63226       47.65567       -0.15024
C        -12.04440       46.37549        2.93519
C        -13.12237       46.40373        3.99020
O        -13.78957       47.39865        4.21049
O        -13.31960       45.30497        4.74312
H        -11.57050       48.72956        3.90107
H        -10.89321       47.41491        1.48148
H        -11.09289       46.16142        3.46981
H        -12.25380       45.52174        2.26189
N        -14.13436       48.37323        1.33706
C        -15.16193       48.63763        0.33250
C        -15.64484       47.33902       -0.29005
O        -16.00692       46.42992        0.44514
C        -16.34383       49.40337        0.97226
C        -17.48022       49.76665       -0.00919
C        -17.02691       50.67419       -1.17091
C        -18.15881       51.00570       -2.15778
N        -19.21080       51.82376       -1.55337
H        -14.32689       48.63214        2.31178
H        -14.72463       49.30103       -0.44211
H        -15.95524       50.34392        1.42205
H        -16.77626       48.78800        1.79193
H        -18.26138       50.28916        0.58073
H        -17.92541       48.83544       -0.42081
H        -16.25022       50.15438       -1.76321
H        -16.58723       51.61516       -0.77475
H        -18.59414       50.06603       -2.56551
H        -17.71731       51.56890       -3.00920
H        -18.80162       52.70283       -1.16132
H        -19.90570       52.07765       -2.29220
H        -19.71049       51.29485       -0.80473
N        -15.73024       47.20307       -1.64749
C        -16.23720       45.98489       -2.27524
C        -15.20139       44.86421       -2.28864
O        -15.54494       43.75252       -2.66503
C        -16.77532       46.26800       -3.69642
C        -15.75456       46.68014       -4.72380
O        -16.16517       46.88108       -5.98941
O        -14.57121       46.79441       -4.44643
H        -15.49759       48.01254       -2.24099
H        -17.12246       45.64795       -1.69021
H        -17.55209       47.06107       -3.63397
H        -17.26462       45.34404       -4.07402
N        -13.91057       45.09343       -1.91465
C        -12.86398       44.09187       -1.89580
C        -12.36261       43.96289       -0.47543
O        -13.15045       43.54664        0.36188
H        -13.62660       46.03792       -1.63429
H        -12.08172       44.42448       -2.60194
H        -13.21995       43.09886       -2.24401
N        -11.11308       44.33652       -0.06804
C        -10.06500       44.87314       -0.93043
C         -8.99727       45.54046       -0.06335
O         -8.45770       44.86949        0.80634
C         -9.44136       43.73293       -1.76579
C         -8.41154       44.24875       -2.73934
N         -7.12353       43.83978       -2.66805
O         -8.74788       45.03850       -3.60914
H        -10.91691       44.26538        0.94254
H        -10.51019       45.63096       -1.60221
H        -10.21886       43.20237       -2.35043
H         -8.98766       42.98670       -1.07691
H         -6.81885       43.17099       -1.94597
H         -6.42602       44.19333       -3.33962
N         -8.62330       46.84730       -0.20077
C         -9.11132       47.73769       -1.24528
C         -8.46294       49.09847       -1.13255
O         -7.24270       49.15989       -1.09586
H         -7.91852       47.20813        0.46257
H        -10.21420       47.83718       -1.18300
H         -8.84043       47.31077       -2.23260
N         -9.22109       50.23345       -1.05106
C         -8.63381       51.56130       -0.84168
C         -9.70779       52.62012       -0.56748
O        -10.88437       52.36725       -0.78473
C         -7.78045       51.97435       -2.07574
C         -6.86926       53.14899       -1.82009
C         -7.00504       54.34555       -2.54354
C         -5.84617       53.03833       -0.86279
C         -6.13236       55.41425       -2.30688
C         -4.97703       54.10555       -0.62843
C         -5.11712       55.29862       -1.35012
O         -4.28230       56.33524       -1.13494
H        -10.24297       50.12278       -1.08939
H         -8.00827       51.47769        0.07322
H         -8.46718       52.16900       -2.92959
H         -7.11056       51.15260       -2.39403
H         -7.78212       54.45276       -3.28964
H         -5.71645       52.12080       -0.30246
H         -6.24460       56.33341       -2.86774
H         -4.19306       54.00097        0.11111
H         -3.56526       56.29102       -0.48590
N         -9.36235       53.84417       -0.06515
C        -10.34589       54.90350        0.19178
C        -11.02410       55.32303       -1.11410
O        -10.56466       54.91559       -2.17418
C         -9.67209       56.09254        0.96703
C         -8.58448       56.80488        0.11582
C        -10.69565       57.10138        1.52239
C         -7.84141       57.91539        0.86063
H         -8.37595       53.99982        0.17699
H        -11.12033       54.46215        0.85860
H         -9.18638       55.63808        1.85992
H         -9.03871       57.23842       -0.80090
H         -7.82067       56.06950       -0.19693
H        -10.21226       57.78820        2.24647
H        -11.12690       57.73244        0.72080
H        -11.50069       56.57321        2.07649
H         -8.52296       58.75279        1.11501
H         -7.37717       57.51744        1.78751
H         -7.04211       58.32461        0.20763
N        -12.14057       56.10859       -1.11764
C        -12.84010       56.48555       -2.34027
C        -14.29039       56.04677       -2.28855
O        -14.76592       55.62441       -1.24367
C        -12.75124       58.00698       -2.55041
O        -13.37010       58.68460       -1.48963
H        -12.53778       56.43123       -0.22539
H        -12.37017       55.99546       -3.22036
H        -13.24796       58.27580       -3.51055
H        -11.68063       58.30399       -2.60740
H        -13.42102       59.63803       -1.76140
N        -15.05418       56.14215       -3.41177
C        -16.48270       55.86999       -3.48914
C        -17.25735       56.89594       -2.68423
O        -18.15433       56.53198       -1.93485
C        -16.81428       54.41550       -3.10457
H        -14.59941       56.46078       -4.28139
H        -16.78499       56.01694       -4.54899
H        -17.89608       54.21519       -3.25479
H        -16.23349       53.71090       -3.73521
H        -16.58077       54.20761       -2.03931
N        -16.93185       58.22319       -2.78570
C        -17.62729       59.30352       -2.09035
C        -17.63204       59.15445       -0.57008
O        -18.31506       59.93173        0.08335
C        -19.05274       59.43114       -2.64214
H        -16.14502       58.49274       -3.39551
H        -17.12025       60.26594       -2.32683
H        -19.55922       60.31327       -2.19487
H        -19.00957       59.58832       -3.74166
H        -19.65876       58.52770       -2.43056
N        -16.89751       58.19611        0.06927
C        -16.95553       57.96837        1.50644
C        -16.53291       59.22132        2.24577
O        -17.29774       59.72303        3.05819
C        -16.06049       56.76054        1.88373
C        -16.26946       56.26571        3.32461
C        -17.65137       55.70080        3.52237
O        -18.47713       56.23414        4.44199
O        -18.02779       54.74975        2.85434
H        -16.27627       57.58969       -0.47830
H        -18.00600       57.70817        1.76650
H        -14.99249       57.02841        1.73044
H        -16.28593       55.90683        1.20632
H        -16.08216       57.09182        4.04292
H        -15.54008       55.45364        3.53325
N        -15.33636       59.80941        1.97027
C        -14.91654       61.03828        2.60554
H        -13.93212       61.35491        2.19973
H        -15.65606       61.84213        2.39964
H        -14.82401       60.88835        3.70122
H        -14.71478       59.38958        1.26233
Ca       -14.69500       47.16434       -7.67456
O        -13.46442       44.69490       -9.35542
H        -12.68393       44.92215       -9.92068
H        -13.16772       43.91322       -8.82515
O        -16.16218       49.67543       -8.43022
H        -15.44772       49.87769       -9.08535
H        -16.90897       49.32501       -8.97772
O        -12.22362       47.67941       -9.27287
H        -11.76231       47.89328       -8.42330
H        -11.99192       48.42669       -9.87907
O        -17.58813       46.50831       -8.68171
H        -18.16402       46.13184       -7.96975
H        -17.73153       45.91332       -9.45972
O        -15.14108       47.10767      -10.70340
H        -14.92979       47.98390      -11.11294
H        -15.65737       46.62496      -11.39652
O        -12.65095       45.30535       -6.29002
H        -11.74776       45.57498       -5.98810
H        -12.99977       44.73821       -5.55721
O        -15.64327       44.14853       -6.91263
H        -15.26483       43.56985       -6.20418
H        -16.61514       43.96070       -6.89531
O        -13.25176       49.34734       -6.50257
H        -13.07469       50.27957       -6.22341
H        -13.05875       48.80182       -5.69910

Ca 1.0



