%chk=apoCaM-CA-Ng.loop2.water3.frame635.chk
%nprocshared=20
%mem=10GB
%nosave
#b3lyp/svp scf=(tight,noincore,xqc) Test 
#IOP(5/87=12) Density=Current Pop=(MK,readradii) iop(6/33=2) iop(6/42=6)

apoCaM-CA-Ng.loop2.water3.frame635 

   -2  1 
C        -11.09525       23.59513        2.55426
C        -12.54642       23.53611        2.18192
O        -13.11281       22.45256        2.16471
H        -10.96704       24.23736        3.45083
H        -10.70746       22.57982        2.78763
H        -10.50909       24.01744        1.71203
N        -13.21936       24.67737        1.86132
C        -14.63694       24.68023        1.51732
C        -15.44556       24.23017        2.72279
O        -15.37827       24.87707        3.75864
C        -15.07364       26.08141        1.04793
C        -16.50332       26.09477        0.58306
O        -17.40155       26.89719        1.18431
O        -16.85384       25.38791       -0.34894
H        -12.69674       25.56750        1.85584
H        -14.78381       23.98274        0.66184
H        -14.43242       26.39494        0.19512
H        -14.93619       26.81584        1.87157
N        -16.19641       23.09525        2.65864
C        -16.88748       22.50165        3.80240
C        -16.25825       21.12480        4.07585
O        -15.36824       20.75669        3.31943
C        -18.38445       22.45800        3.47771
H        -16.24104       22.58802        1.76062
H        -16.74980       23.13514        4.70231
H        -18.99492       22.11768        4.32857
H        -18.73615       23.48592        3.24257
H        -18.57767       21.80769        2.59888
N        -16.57434       20.28337        5.10826
C        -17.61330       20.45333        6.11943
C        -17.46236       21.70864        6.96264
O        -16.36895       22.23736        7.10493
C        -17.69217       19.20238        7.02856
C        -16.39241       18.89475        7.73038
O        -15.86200       19.77099        8.60130
O        -15.81435       17.84121        7.51319
H        -16.02838       19.40744        5.14642
H        -18.58873       20.49594        5.60184
H        -17.96364       18.33057        6.39248
H        -18.49452       19.32807        7.78691
N        -18.57915       22.24778        7.52844
C        -18.60943       23.45239        8.34184
C        -19.31424       24.56655        7.58982
O        -19.58163       24.39509        6.40832
H        -19.48802       21.79552        7.34374
H        -17.58836       23.80779        8.60179
H        -19.14295       23.19988        9.28186
N        -19.63317       25.76717        8.15516
C        -19.49510       26.10995        9.56548
C        -18.45890       27.20346        9.76660
O        -18.49410       27.86591       10.79568
C        -20.87455       26.56530       10.10639
C        -21.95688       25.51167       10.03964
N        -23.20691       25.81173       10.46174
O        -21.71893       24.39094        9.61413
H        -20.04119       26.49021        7.54101
H        -19.16099       25.24963       10.18058
H        -21.21095       27.45338        9.52711
H        -20.77654       26.86236       11.17340
H        -23.42784       26.75139       10.82337
H        -23.95712       25.10579       10.42491
N        -17.42857       27.37438        8.88768
C        -16.34507       28.31365        9.12579
C        -15.64925       27.97954       10.42394
O        -15.59281       28.82474       11.30597
H        -17.37250       26.78979        8.04100
H        -16.74527       29.35096        9.15329
H        -15.61105       28.24506        8.29395
N        -15.14312       26.73069       10.62004
C        -14.55216       26.28225       11.87681
C        -13.12655       25.81666       11.68381
O        -12.64668       25.74342       10.56027
C        -15.37964       25.09082       12.44328
C        -16.78829       25.50878       12.84956
O        -15.47405       24.05485       11.49532
H        -15.22549       26.04859        9.85244
H        -14.53165       27.10641       12.62292
H        -14.91229       24.69888       13.37516
H        -14.61300       23.56139       11.51015
H        -17.32809       24.63342       13.27054
H        -16.74241       26.30201       13.62529
H        -17.35364       25.87803       11.97491
N        -12.41572       25.41512       12.77569
C        -11.15263       24.70656       12.69592
C        -11.41399       23.32950       13.28140
O        -11.57657       23.21294       14.48883
C        -10.01950       25.48228       13.42787
C         -8.70382       24.65799       13.45009
C         -9.80820       26.85052       12.74818
C         -7.57987       25.31750       14.25366
H        -12.83242       25.53404       13.71242
H        -10.84680       24.58945       11.63769
H        -10.33962       25.65704       14.47948
H         -8.35135       24.46593       12.41351
H         -8.89830       23.67761       13.93446
H         -9.46517       26.71531       11.69922
H        -10.75112       27.43588       12.73976
H         -9.06261       27.46316       13.29292
H         -7.25089       26.26955       13.79168
H         -7.91254       25.50774       15.29662
H         -6.70115       24.63925       14.28261
N        -11.54415       22.25216       12.45658
C        -11.82259       20.89642       12.91133
C        -10.70979       19.93116       12.51906
O        -10.71031       18.82597       13.04354
C        -13.18533       20.41808       12.34829
C        -13.17125       20.38653       10.84072
O        -12.37383       19.67923       10.24887
O        -13.98235       21.18314       10.12678
H        -11.48222       22.40812       11.44845
H        -11.88151       20.88631       14.02172
H        -13.97802       21.11809       12.69330
H        -13.42781       19.40511       12.73441
N         -9.76260       20.23853       11.57527
C         -8.67723       19.32968       11.23467
C         -7.97099       19.78698        9.94891
O         -6.82323       20.20559       10.02528
C         -7.70454       19.24577       12.44066
C         -6.60954       18.23082       12.22362
C         -5.26389       18.63287       12.18701
C         -6.92509       16.86983       12.06376
C         -4.25274       17.68937       11.98526
C         -5.91082       15.92998       11.86420
C         -4.57569       16.33934       11.82363
H         -9.80758       21.13157       11.06747
H         -9.08450       18.31501       11.05059
H         -8.24515       18.94927       13.36300
H         -7.28051       20.25847       12.62308
H         -4.99760       19.67549       12.30972
H         -7.95442       16.53503       12.09642
H         -3.21845       18.00563       11.95444
H         -6.16084       14.88410       11.74188
H         -3.79156       15.61021       11.66854
N         -8.56144       19.70220        8.70947
C         -7.83666       19.97250        7.47244
C         -7.40264       21.40819        7.27296
O         -6.62741       21.65367        6.35871
C         -8.81109       19.55838        6.36611
C         -9.58831       18.45031        7.04886
C         -9.83248       19.07065        8.42256
H         -6.94640       19.30277        7.47765
H         -9.53624       20.38606        6.18230
H         -8.32815       19.29257        5.40138
H        -10.50641       18.12839        6.51569
H         -8.91342       17.57134        7.16577
H        -10.60725       19.86446        8.33922
H        -10.14597       18.29129        9.14374
N         -7.88605       22.41931        8.04914
C         -7.43730       23.79439        7.88774
C         -5.98852       23.87945        8.31698
O         -5.15524       24.28057        7.51683
C         -8.28825       24.79138        8.70196
C         -9.71735       24.99008        8.15517
C        -10.61991       23.81509        8.36311
O        -11.34065       23.26606        7.36658
O        -10.78637       23.40301        9.49194
H         -8.58531       22.20500        8.77235
H         -7.53002       24.10221        6.82119
H         -7.79738       25.78648        8.62280
H         -8.31291       24.51807        9.78072
H         -9.69363       25.28091        7.08384
H        -10.16962       25.83070        8.72643
N         -5.61965       23.48693        9.56977
C         -4.25172       23.50790       10.04499
H         -3.54512       23.90358        9.28563
H         -4.18723       24.14404       10.95186
H         -3.94075       22.47460       10.30721
H         -6.33927       23.13495       10.21944
Ca       -13.02557       22.05109        8.27854
O        -13.75863       22.60804        5.59680
H        -13.64242       22.32867        4.65727
H        -14.30019       23.43276        5.54872
O        -12.48590       19.96912        5.93208
H        -12.80713       19.03344        5.96623
H        -12.02552       20.04403        5.05853
O        -14.21468       24.88988        7.75795
H        -13.94512       24.47318        8.61405
H        -13.38353       25.30049        7.41118

Ca 1.0



