%chk=apoCaM-CA-Ng.loop1.water1.frame874.chk
%nprocshared=20
%mem=10GB
%nosave
#b3lyp/svp scf=(tight,noincore,xqc) Test 
#IOP(5/87=12) Density=Current Pop=(MK,readradii) iop(6/33=2) iop(6/42=6)

apoCaM-CA-Ng.loop1.water1.frame874 

   0  1 
C          6.46483        1.16148       15.98663
C          6.04480        2.42161       16.68860
O          5.17563        3.11571       16.18078
H          7.26387        0.63023       16.54561
H          5.59348        0.48147       15.88414
H          6.85156        1.41043       14.97575
N          6.62304        2.78457       17.86897
C          6.26739        4.00557       18.58712
C          6.50145        5.24740       17.72079
O          7.54078        5.36343       17.08789
C          6.96344        4.09684       19.96199
C          8.46359        4.10167       19.95954
O          9.17202        3.86264       18.84470
O          9.05636        4.36243       20.99391
H          7.33834        2.16100       18.27267
H          5.18330        3.95648       18.83326
H          6.62897        3.25710       20.60844
H          6.61830        5.04465       20.43099
N          5.50818        6.17661       17.60012
C          5.47868        7.24909       16.60141
C          6.63461        8.25185       16.58991
O          6.68155        9.01649       15.63540
C          4.08273        7.93798       16.60218
C          3.61344        8.63135       17.90431
C          4.29746        9.96882       18.20193
C          3.66465       10.64309       19.43203
N          4.25553       11.95793       19.67869
H          4.66379        6.02974       18.17194
H          5.55673        6.73787       15.61552
H          3.34644        7.12675       16.40706
H          3.99936        8.65119       15.75319
H          3.70188        7.95075       18.77621
H          2.53142        8.85318       17.76755
H          4.14350       10.62892       17.32584
H          5.38276        9.82624       18.37919
H          3.80783        9.99925       20.32797
H          2.57088       10.77003       19.26561
H          5.28194       11.86723       19.85599
H          4.08969       12.58218       18.85660
H          3.80124       12.38611       20.51789
N          7.61327        8.31854       17.54080
C          8.76453        9.22108       17.39064
C          9.62104        8.77954       16.19436
O          9.81072        7.58290       16.03470
C          9.59292        9.31920       18.70975
C         10.33352        8.08309       19.16368
O         10.89446        8.07080       20.24748
O         10.40811        7.00900       18.36807
H          7.54737        7.71954       18.37687
H          8.38368       10.25323       17.23552
H          8.88519        9.61231       19.51630
H         10.34401       10.13229       18.60989
N         10.20007        9.62360       15.29497
C         10.08559       11.06557       15.24935
C          8.72793       11.48763       14.75992
O          8.26986       10.95221       13.75966
H         10.80136        9.19689       14.57152
H         10.80123       11.42908       14.47940
H         10.37822       11.52954       16.21587
N          8.06532       12.50930       15.36591
C          6.77712       13.01085       14.90357
C          6.95186       14.37987       14.27351
O          7.54565       15.26299       14.87674
C          5.72760       12.99932       16.02715
C          6.01493       13.91215       17.18739
O          6.99150       13.73329       17.89619
O          5.15899       14.91012       17.47848
H          8.52816       12.98817       16.15144
H          6.36243       12.33371       14.12384
H          5.63480       11.96202       16.40067
H          4.75082       13.29305       15.58212
N          6.44482       14.61132       13.03180
C          6.63285       15.84017       12.28486
C          8.04050       15.93117       11.75446
O          8.69025       16.95297       11.92382
H          5.88777       13.87262       12.57585
H          6.32955       16.72986       12.87959
H          5.97949       15.79563       11.38705
N          8.56449       14.86642       11.08328
C          9.87739       14.85093       10.44804
C         10.85223       14.02840       11.27159
O         10.48395       13.57194       12.34733
C          9.74970       14.36763        8.97570
C          9.30467       12.90437        8.84557
O          8.83624       15.18058        8.28551
H          8.00248       14.00442       11.04429
H         10.30212       15.87918       10.42164
H         10.74029       14.43101        8.47177
H          9.30945       16.02599        8.06777
H         10.02222       12.23003        9.35909
H          8.29159       12.74146        9.26446
H          9.27280       12.62087        7.77246
N         12.13653       13.84109       10.84579
C         13.16778       13.20818       11.66423
C         14.31991       14.18162       11.95046
O         15.12125       13.87833       12.82067
C         13.59261       11.83464       11.05719
C         14.57268       11.02119       11.94452
C         14.19062       11.97918        9.64819
C         14.03791       10.71524       13.34702
H         12.39651       14.18884        9.91331
H         12.72452       12.99062       12.65635
H         12.66544       11.22507       10.95880
H         15.54931       11.54130       12.03184
H         14.76104       10.04351       11.44834
H         13.46895       12.45304        8.95272
H         15.12261       12.58158        9.67452
H         14.42603       10.97590        9.23139
H         14.76682       10.07445       13.88641
H         13.90809       11.63947       13.94508
H         13.06904       10.17609       13.28487
N         14.42567       15.39746       11.32240
C         15.35961       16.44314       11.73905
C         16.34416       16.79128       10.63123
O         16.17751       16.34133        9.50680
C         14.49466       17.66769       12.16420
C         15.25280       18.82393       12.81428
O         13.78785       18.17343       11.05610
H         13.78262       15.64327       10.56153
H         15.95202       16.09157       12.61044
H         13.78304       17.30931       12.94668
H         12.88380       17.76364       11.05983
H         14.52392       19.58524       13.16440
H         15.83337       18.46181       13.68843
H         15.91756       19.33391       12.09043
N         17.41244       17.59889       10.90437
C         18.35997       18.06771        9.90420
C         19.74775       17.54619       10.23739
O         20.27692       16.77291        9.44973
C         18.26935       19.61630        9.80799
C         19.23534       20.20873        8.78094
O         18.50290       20.21282       11.05949
H         17.56466       17.90543       11.87487
H         18.08723       17.66799        8.90149
H         17.22788       19.84686        9.47558
H         17.88931       20.98907       11.14176
H         19.04499       19.77630        7.77679
H         19.08677       21.30886        8.72643
H         20.28877       20.01353        9.07384
N         20.40568       17.92822       11.37060
C         21.72812       17.43023       11.73368
C         21.74836       16.89605       13.15483
O         20.83338       17.15419       13.92588
C         22.80908       18.51399       11.51784
C         22.47014       19.88077       12.13949
C         23.62739       20.87155       11.93008
C         23.29548       22.30596       12.37873
N         22.30515       22.94406       11.50574
H         19.96393       18.60967       12.00234
H         22.00042       16.57299       11.07904
H         22.91944       18.67536       10.42272
H         23.78373       18.14025       11.90191
H         22.26795       19.78136       13.22798
H         21.55829       20.26054       11.63729
H         23.92849       20.90202       10.86016
H         24.49496       20.50574       12.52190
H         24.23284       22.90340       12.33006
H         22.94138       22.31121       13.43311
H         22.64815       22.94574       10.51698
H         21.38196       22.46019       11.55841
H         22.17157       23.93542       11.80959
N         22.77287       16.08293       13.54182
C         22.90115       15.49327       14.87028
C         21.62670       14.76061       15.29884
O         21.11586       15.11057       16.35348
C         24.16286       14.59539       14.93173
C         24.40408       13.98052       16.32188
C         25.63649       13.11257       16.37313
O         25.96815       12.50686       17.52879
O         26.33661       12.94158       15.38637
H         23.49315       15.85423       12.83806
H         23.06966       16.32060       15.59735
H         25.04612       15.21718       14.66422
H         24.10013       13.78258       14.18665
H         23.53565       13.34948       16.60646
H         24.51502       14.79570       17.06839
N         21.00767       13.77545       14.58321
C         21.42815       13.28356       13.28972
H         22.41292       12.79034       13.35029
H         20.70404       12.52028       12.93347
H         21.44124       14.10479       12.54562
H         20.14514       13.36646       14.97643
Ca        11.11442        4.93918       18.79794
O          9.44678        4.27949       14.83687
H          9.52406        3.50605       14.22348
H          8.62012        4.74229       14.54873

Ca 1.0



