%chk=apoCaM-CA-Ng.loop3.water3.frame946.chk
%nprocshared=20
%mem=10GB
%nosave
#b3lyp/svp scf=(tight,noincore,xqc) Test 
#IOP(5/87=12) Density=Current Pop=(MK,readradii) iop(6/33=2) iop(6/42=6)

apoCaM-CA-Ng.loop3.water3.frame946 

   0  1 
C         77.55956      127.14707       64.24622
C         77.08805      128.57010       64.25499
O         76.75623      129.10221       63.20505
H         78.59197      127.08864       64.64854
H         76.88540      126.53577       64.88414
H         77.54531      126.73139       63.21656
N         76.99845      129.24210       65.43479
C         76.45928      130.59650       65.53528
C         77.39820      131.60237       64.86368
O         78.53682      131.24825       64.58429
C         76.23689      130.91157       67.04115
C         75.29205      132.02795       67.38365
O         75.04725      132.29400       68.67969
O         74.68728      132.64557       66.52738
H         77.26228      128.73515       66.29510
H         75.47663      130.58554       65.01972
H         77.22269      131.07861       67.52870
H         75.77411      130.02162       67.51787
N         76.99075      132.87325       64.57366
C         77.86301      133.89633       63.99787
C         78.09096      135.05712       64.95972
O         79.01730      135.82383       64.74145
C         77.30300      134.37299       62.64149
C         75.97968      135.17057       62.75684
C         75.39290      135.53766       61.38429
C         74.78484      134.31875       60.66795
N         74.29024      134.67694       59.34046
H         76.01607      133.12196       64.75278
H         78.86467      133.45144       63.81108
H         77.16962      133.46882       62.01499
H         78.05261      135.02544       62.14184
H         76.19869      136.11335       63.30397
H         75.20550      134.61987       63.32878
H         76.17985      136.01649       60.76274
H         74.57418      136.27586       61.53486
H         73.94118      133.93591       61.28263
H         75.52938      133.50535       60.55431
H         73.57980      135.44100       59.40717
H         75.08909      134.98434       58.73931
H         73.84632      133.83578       58.90518
N         77.27108      135.25884       66.03108
C         77.45516      136.29820       67.03183
C         77.50202      135.71063       68.44293
O         77.65644      136.48954       69.37503
C         76.35889      137.38107       66.87021
C         74.96515      136.84927       66.65650
O         74.36275      137.13065       65.63267
O         74.37313      136.06303       67.56683
H         76.44173      134.66746       66.15087
H         78.42712      136.82169       66.89442
H         76.61366      137.98096       65.96899
H         76.37718      138.07432       67.73917
N         77.41745      134.36580       68.69688
C         77.50769      133.81529       70.04389
C         76.38799      134.26906       70.96668
O         76.51621      134.06658       72.16516
H         77.33710      133.69395       67.92358
H         78.47817      134.14562       70.47373
H         77.51656      132.70372       70.01272
N         75.27798      134.90409       70.49086
C         74.26939      135.53279       71.33251
C         72.89226      134.93380       71.10438
O         72.39433      134.98064       69.99146
C         74.22729      137.03549       70.98888
C         73.21574      137.77309       71.82946
N         72.14465      138.36977       71.25489
O         73.35938      137.82171       73.04170
H         75.16104      134.99324       69.47845
H         74.54208      135.43247       72.40567
H         73.97494      137.15241       69.91215
H         75.22939      137.48903       71.14627
H         71.99761      138.32875       70.23539
H         71.45002      138.86474       71.83306
N         72.17863      134.44199       72.15323
C         70.79881      133.99719       72.04877
C         70.64725      132.74122       71.22777
O         71.28271      131.75092       71.56231
H         72.60482      134.44881       73.09249
H         70.16669      134.82238       71.65497
H         70.43407      133.75879       73.07180
N         69.75052      132.67708       70.19500
C         69.44494      131.41948       69.51177
C         70.52067      131.06809       68.44065
O         71.80607      131.27259       68.93330
C         68.03808      131.46956       68.85562
C         66.89711      131.84889       69.77465
C         65.99426      132.85564       69.38614
C         66.68245      131.17382       70.98939
C         64.89297      133.16979       70.18791
C         65.58907      131.50252       71.79816
C         64.68619      132.49265       71.39731
O         63.62147      132.77670       72.17473
H         69.17165      133.50809       69.99741
H         69.41684      130.61340       70.27739
H         67.77826      130.46062       68.48339
H         68.06208      132.15815       67.98335
H         66.12351      133.38069       68.44768
H         67.35448      130.39087       71.31325
H         64.19586      133.93225       69.86268
H         65.43541      130.97642       72.73191
H         62.95947      133.43582       71.92074
N         70.35565      129.69097       67.92861
C         71.31602      129.20450       66.90966
C         71.55926      130.21815       65.80494
O         72.25697      131.19403       66.03336
C         72.64387      128.67788       67.53736
C         73.66385      128.17470       66.47817
C         72.35353      127.58698       68.58224
C         73.17528      127.04262       65.57306
H         69.42501      129.64599       67.46048
H         70.82892      128.31822       66.44457
H         73.15589      129.50648       68.06718
H         74.58595      127.83647       66.99955
H         73.95170      129.02180       65.82467
H         71.71164      127.98815       69.39467
H         71.83179      126.72093       68.12487
H         73.30054      127.23426       69.04327
H         72.91399      126.14155       66.16256
H         72.30021      127.36370       64.97234
H         73.98729      126.77174       64.86537
N         71.01344      130.04193       64.56766
C         71.27980      130.95999       63.46977
C         70.23117      130.81686       62.37903
O         70.08362      129.74660       61.80533
C         72.69657      130.72257       62.91903
O         72.99957      131.64676       61.91005
H         70.36784      129.25158       64.41651
H         71.22259      131.99993       63.85938
H         72.80900      129.67880       62.54363
H         73.44555      130.84681       63.72739
H         72.65732      131.27031       61.05800
N         69.46682      131.89675       62.05263
C         68.41355      131.91445       61.04671
C         68.80164      132.92180       59.96239
O         69.24132      134.00566       60.32094
C         67.10357      132.30272       61.73606
H         69.63650      132.78195       62.55573
H         68.25767      130.90547       60.61865
H         66.26183      132.30193       61.01765
H         66.86823      131.55804       62.52740
H         67.18049      133.30714       62.20252
N         68.71914      132.67019       58.61862
C         68.03030      131.52223       58.03566
C         66.52901      131.68168       58.26754
O         66.10801      132.79158       58.56708
C         68.30264      131.45811       56.52523
H         69.10215      133.38348       57.97711
H         68.43367      130.59599       58.49208
H         67.94643      132.38471       56.02499
H         69.39446      131.35724       56.34656
H         67.79552      130.59228       56.05388
N         65.62561      130.66563       58.17817
C         65.92122      129.27434       57.87912
C         65.66514      128.45079       59.12494
O         66.58859      127.79918       59.59317
C         65.06307      128.82506       56.67812
C         65.29588      127.35539       56.29837
C         64.49695      126.98131       55.08249
O         63.56528      126.01173       55.15725
O         64.69631      127.54488       54.01781
H         64.64063      130.89959       58.38241
H         66.98489      129.13547       57.60150
H         65.32579      129.47070       55.81065
H         63.98323      128.97356       56.90227
H         64.99254      126.70290       57.14570
H         66.37230      127.18326       56.08497
N         64.44509      128.45498       59.73354
C         64.16025      127.71943       60.94915
H         63.32254      127.01572       60.76630
H         65.03510      127.13848       61.30996
H         63.86555      128.43294       61.74735
H         63.67954      129.01746       59.33456
Ca        72.32290      133.25245       67.93010
O         72.55881      134.26505       64.61750
H         72.30784      134.72835       63.77928
H         73.27379      134.82648       65.00739
O         69.85786      133.72681       66.34326
H         69.22323      134.14425       66.97860
H         69.28931      133.20045       65.72744
O         71.31728      136.27262       67.28611
H         70.81161      136.35949       68.13275
H         71.91003      137.06497       67.27045

Ca 1.0



