%chk=apoCaM-CA-Ng.loop4.water4.frame919.chk
%nprocshared=20
%mem=10GB
%nosave
#b3lyp/svp scf=(tight,noincore,xqc) Test 
#IOP(5/87=12) Density=Current Pop=(MK,readradii) iop(6/33=2) iop(6/42=6)

apoCaM-CA-Ng.loop4.water4.frame919 

   -3  1 
C         -9.19252      -10.72182       22.97356
C        -10.06621      -11.93808       23.09359
O        -10.77812      -12.23099       22.14925
H         -8.48447      -10.85563       22.12873
H         -9.82281       -9.82810       22.78211
H         -8.60467      -10.54524       23.89892
N        -10.06707      -12.67489       24.24268
C        -10.84927      -13.88208       24.51897
C        -10.39298      -15.08834       23.70420
O         -9.81588      -15.98815       24.29879
C        -12.36774      -13.66318       24.40394
C        -12.85489      -12.53753       25.26812
O        -12.65501      -12.56442       26.59963
O        -13.46052      -11.60472       24.76766
H         -9.46676      -12.34532       25.01476
H        -10.64452      -14.13976       25.58510
H        -12.88502      -14.58965       24.72898
H        -12.64535      -13.46277       23.35046
N        -10.63444      -15.20643       22.36170
C        -10.20999      -16.34610       21.55086
C        -10.91987      -17.60265       22.06840
O        -10.26165      -18.46281       22.63635
C         -8.65081      -16.45436       21.48320
C         -8.03272      -15.06664       21.14745
C         -8.25800      -17.50405       20.42060
C         -6.50798      -15.06742       21.03147
H        -11.15918      -14.47491       21.87204
H        -10.51280      -16.16736       20.49718
H         -8.24891      -16.77606       22.46802
H         -8.28722      -14.35553       21.96278
H         -8.46085      -14.67176       20.20065
H         -8.70906      -18.49189       20.64083
H         -8.60141      -17.18127       19.41331
H         -7.16136      -17.65737       20.39112
H         -6.15238      -14.02685       20.87565
H         -6.04663      -15.46739       21.95867
H         -6.17430      -15.66455       20.15887
N        -12.27634      -17.77286       21.98185
C        -13.17996      -16.90417       21.23160
C        -14.06076      -16.09381       22.15928
O        -14.15061      -16.39679       23.34107
C        -13.99450      -17.77397       20.24952
C        -14.88490      -16.98607       19.33196
O        -16.21757      -17.17873       19.35588
O        -14.40438      -16.18440       18.54676
H        -12.69040      -18.59549       22.44964
H        -12.60439      -16.16808       20.64661
H        -14.61256      -18.49138       20.83401
H        -13.29321      -18.36215       19.61844
N        -14.65346      -14.96185       21.68338
C        -15.39007      -14.02201       22.50381
C        -16.75069      -13.71088       21.93828
O        -17.18069      -14.31433       20.96458
H        -14.50308      -14.69576       20.69945
H        -14.81915      -13.06990       22.51015
H        -15.49391      -14.36982       23.55441
N        -17.47706      -12.72213       22.52404
C        -18.80775      -12.30726       22.08909
C        -18.88275      -11.75441       20.66115
O        -19.99941      -11.53852       20.20902
C        -19.40769      -11.30190       23.11128
C        -18.50472      -10.13909       23.46136
O        -18.13663       -9.34410       22.61729
O        -18.08955       -9.97930       24.73269
H        -17.05968      -12.26765       23.35084
H        -19.46164      -13.20767       22.09914
H        -19.59175      -11.85654       24.05636
H        -20.38961      -10.92601       22.75096
N        -17.78829      -11.50739       19.87767
C        -17.89854      -11.02177       18.50046
C        -18.47293       -9.61295       18.36388
O        -18.60931       -9.14591       17.24311
H        -16.84295      -11.69054       20.24172
H        -18.52029      -11.73533       17.91729
H        -16.88454      -11.00630       18.04369
N        -18.79249       -8.86845       19.45772
C        -19.27750       -7.49527       19.46927
C        -18.26079       -6.54854       18.86008
O        -18.61366       -5.69304       18.05873
C        -20.69731       -7.35244       18.87941
C        -21.72001       -8.21967       19.63312
C        -23.12919       -7.89509       19.20411
N        -23.93218       -8.83896       18.66127
O        -23.55801       -6.76192       19.36706
H        -18.64138       -9.27312       20.37863
H        -19.34748       -7.19266       20.53918
H        -20.71121       -7.60828       17.79763
H        -20.99339       -6.28597       18.99092
H        -21.64961       -8.01990       20.72422
H        -21.49105       -9.29378       19.46175
H        -23.59928       -9.80310       18.51959
H        -24.89711       -8.60255       18.38444
N        -16.95315       -6.65906       19.22083
C        -15.89658       -5.76169       18.77439
C        -15.04874       -5.26299       19.94528
O        -14.08819       -4.55652       19.67736
C        -15.01359       -6.44151       17.68343
C        -14.49736       -7.82836       18.09458
C        -15.77191       -6.53221       16.35054
H        -16.68338       -7.44858       19.82874
H        -16.32125       -4.84574       18.30534
H        -14.13618       -5.78651       17.48450
H        -13.82670       -8.22983       17.30463
H        -13.92607       -7.76895       19.04346
H        -15.33950       -8.54285       18.21833
H        -16.08086       -5.51493       16.02263
H        -15.11148       -6.94887       15.56019
H        -16.67560       -7.16863       16.43935
N        -15.34390       -5.53107       21.26016
C        -14.48781       -5.04358       22.34327
C        -15.17543       -5.09877       23.70719
O        -15.97591       -5.98201       23.96956
C        -13.14012       -5.81971       22.34787
C        -12.09640       -5.34160       23.37432
N        -11.82376       -3.91426       23.24681
O        -12.49004       -5.64399       24.67809
H        -16.20140       -6.04557       21.49839
H        -14.29391       -3.96702       22.14170
H        -12.66392       -5.72476       21.35121
H        -13.33248       -6.90106       22.51680
H        -11.38593       -3.73960       22.31460
H        -11.13401       -3.63659       23.98086
N        -14.85503       -4.13938       24.62806
C        -15.37187       -4.05159       26.00100
C        -14.82136       -2.78451       26.68294
O        -13.92007       -2.15238       26.15589
C        -14.94983       -5.31817       26.79617
C        -15.37803       -5.36658       28.24522
C        -16.73216       -5.43890       28.61179
C        -14.40040       -5.36587       29.25227
C        -17.09190       -5.50485       29.96536
C        -14.75717       -5.42760       30.59776
C        -16.10648       -5.49888       30.96112
O        -16.46406       -5.56637       32.25942
H        -14.18881       -3.42716       24.30616
H        -16.47855       -3.96489       25.94580
H        -13.84234       -5.37227       26.75096
H        -15.34108       -6.23501       26.31094
H        -17.50492       -5.45079       27.85403
H        -13.35638       -5.31948       28.99452
H        -18.13666       -5.56473       30.24194
H        -13.98204       -5.42416       31.35415
H        -15.80821       -5.57046       32.97214
N        -15.35936       -2.32475       27.84718
C        -14.88462       -1.12495       28.52990
C        -14.57392       -1.45918       29.98258
O        -15.39424       -1.15587       30.83833
C        -15.94045       -0.00330       28.41436
C        -16.09504        0.47484       26.96155
C        -17.04381        1.63458       26.87539
O        -16.65628        2.71474       26.45810
O        -18.32808        1.48871       27.25219
H        -16.17409       -2.80950       28.24742
H        -13.97841       -0.69546       28.06551
H        -15.59136        0.86555       29.01721
H        -16.91957       -0.34450       28.81745
H        -16.47101       -0.34917       26.31941
H        -15.09976        0.79389       26.57691
N        -13.42666       -2.08503       30.38471
C        -12.29715       -2.45172       29.53137
C        -11.64112       -1.21181       28.94736
O        -11.31018       -0.30380       29.69815
C        -11.24259       -3.22234       30.36812
C        -10.05262       -3.73351       29.53399
C        -10.46783       -4.78651       28.54754
O        -10.96347       -5.96035       28.98377
O        -10.33470       -4.59454       27.35040
H        -13.34864       -2.29640       31.39306
H        -12.65243       -3.12484       28.72504
H        -11.72136       -4.09029       30.87183
H        -10.85257       -2.54734       31.16235
H         -9.29540       -4.18330       30.21000
H         -9.56886       -2.88207       29.00851
N        -11.38958       -1.13098       27.61088
C        -10.76358        0.01235       26.97909
H         -9.81043       -0.30578       26.50700
H        -11.43841        0.41051       26.19280
H        -10.54463        0.82877       27.69874
H        -11.62939       -1.92848       27.00603
Ca       -10.82429       -6.93587       25.55146
O        -13.25026       -8.06237       27.77920
H        -13.44641       -8.05188       28.74945
H        -13.88388       -8.72516       27.40667
O         -8.45702       -5.36422       24.63062
H         -8.78133       -5.73698       23.77242
H         -9.09593       -4.63829       24.84176
O        -10.45228       -9.12494       28.16662
H        -10.64856      -10.06735       27.93436
H         -9.70354       -9.17741       28.81231
O        -12.68484       -8.91629       24.50899
H        -12.22750       -9.30910       25.29534
H        -13.53986       -8.56842       24.86708

Ca 1.0



