%chk=apoCaM-CA-Ng.loop2.water4.frame1087.chk
%nprocshared=20
%mem=10GB
%nosave
#b3lyp/svp scf=(tight,noincore,xqc) Test 
#IOP(5/87=12) Density=Current Pop=(MK,readradii) iop(6/33=2) iop(6/42=6)

apoCaM-CA-Ng.loop2.water4.frame1087 

   -2  1 
C         48.29117       75.83862       60.65747
C         46.94841       75.94000       59.97497
O         46.71983       75.12578       59.09231
H         49.08887       75.94586       59.89180
H         48.49699       76.58659       61.43757
H         48.38494       74.83573       61.12334
N         45.99184       76.87703       60.25534
C         46.06171       77.93989       61.25798
C         46.13456       79.27903       60.52828
O         46.54460       79.28624       59.37428
C         44.87997       77.77531       62.26012
C         43.55160       78.07864       61.63531
O         42.69983       77.10217       61.29866
O         43.28583       79.21883       61.29659
H         45.13392       76.85072       59.67990
H         46.96815       77.87459       61.87790
H         45.00350       78.43154       63.14695
H         44.89553       76.72445       62.62386
N         45.75214       80.45013       61.11731
C         45.83431       81.75872       60.47335
C         45.02451       81.90409       59.17718
O         45.11327       82.97897       58.59828
C         47.31026       82.11532       60.22474
H         45.40207       80.43262       62.08556
H         45.44452       82.51794       61.18788
H         47.40043       83.15365       59.84017
H         47.87753       82.05530       61.17804
H         47.78102       81.43374       59.48732
N         44.23498       80.91389       58.64360
C         43.58895       81.04406       57.33925
C         42.07913       81.00092       57.41088
O         41.51938       80.07129       57.96883
C         44.14686       80.01893       56.32770
C         43.90800       78.52608       56.45338
O         44.41306       77.81822       55.59753
O         43.19809       77.90273       57.41658
H         44.11283       80.02206       59.13393
H         43.86104       82.02115       56.88390
H         45.24824       80.17138       56.29474
H         43.74473       80.29984       55.32916
N         41.34569       81.96270       56.77769
C         39.89573       81.93816       56.68424
C         39.34317       80.77518       55.86784
O         38.12803       80.70149       55.75499
H         41.83175       82.74887       56.32014
H         39.55553       82.87495       56.19123
H         39.46489       81.91691       57.70918
N         40.14100       79.82003       55.29582
C         39.62380       78.64971       54.59148
C         39.81104       77.42075       55.46467
O         40.31760       77.55291       56.57131
C         40.33771       78.48216       53.23504
C         40.14530       79.67556       52.33504
N         41.21123       80.35915       51.85618
O         39.01553       80.01697       52.01813
H         41.16116       79.86532       55.40222
H         38.52987       78.74576       54.41530
H         39.93064       77.59579       52.70636
H         41.42209       78.30568       53.41075
H         42.17305       80.08009       52.09899
H         41.07587       81.16553       51.22859
N         39.37572       76.19258       55.05517
C         39.41783       75.02353       55.92084
C         38.01346       74.53775       56.16786
O         37.16776       75.37007       56.46503
H         38.95170       76.08712       54.12144
H         39.84971       75.27795       56.90820
H         40.06180       74.24186       55.48617
N         37.65280       73.22353       56.14853
C         38.56185       72.09337       55.96741
C         39.00234       71.96102       54.51908
O         38.15840       72.03936       53.63619
C         37.85945       70.79051       56.42963
C         38.81240       69.58919       56.42993
O         37.38736       70.97164       57.74266
H         36.66798       73.01683       56.38268
H         39.43614       72.21714       56.64608
H         37.00663       70.58388       55.73811
H         36.50106       70.52835       57.80347
H         39.66833       69.78101       57.11366
H         38.27484       68.68601       56.78798
H         39.20179       69.38190       55.41247
N         40.29509       71.64260       54.21419
C         40.75653       71.38929       52.85223
C         41.01538       69.88735       52.70628
O         41.89012       69.39573       53.40798
C         42.04530       72.20914       52.53530
C         41.77730       73.72555       52.70280
C         42.54786       71.89481       51.10873
C         43.02329       74.59820       52.53702
H         40.96254       71.49223       54.98709
H         40.00468       71.74367       52.13188
H         42.83835       71.90909       53.25678
H         41.40582       73.90926       53.72768
H         40.99556       74.05643       51.98449
H         41.78912       72.18844       50.35164
H         43.49895       72.41683       50.89023
H         42.76613       70.81320       50.99381
H         43.80323       74.29491       53.26688
H         43.44016       74.53612       51.51344
H         42.75330       75.65881       52.72402
N         40.36423       69.07032       51.81816
C         39.28206       69.47480       50.91783
C         39.83467       69.84327       49.55310
O         41.01357       69.63911       49.30847
C         38.15596       68.41550       50.86001
C         38.54620       67.10409       50.22213
O         37.97640       66.72935       49.20981
O         39.47993       66.31103       50.78040
H         40.71205       68.10464       51.74623
H         38.78141       70.37039       51.31538
H         37.30893       68.84380       50.28002
H         37.78479       68.21812       51.88920
N         39.03897       70.47083       48.63529
C         39.55583       70.94430       47.35337
C         38.48309       71.74155       46.61081
O         37.41971       71.18022       46.39647
C         39.97154       69.76268       46.43988
C         40.79571       70.28472       45.28933
C         40.24784       70.44659       44.00624
C         42.13637       70.64184       45.51640
C         41.03220       70.96929       42.97098
C         42.91927       71.14738       44.47734
C         42.36673       71.31587       43.20595
H         38.06253       70.67510       48.89219
H         40.44662       71.57035       47.56239
H         39.05901       69.23286       46.08565
H         40.58220       68.99761       46.96166
H         39.21341       70.19202       43.81311
H         42.57478       70.52081       46.49983
H         40.60586       71.10976       41.98637
H         43.95271       71.41190       44.66098
H         42.97335       71.71676       42.40440
N         38.67998       73.00955       46.11583
C         39.91336       73.78507       46.16662
C         40.28704       74.29292       47.54887
O         39.63694       73.93411       48.52266
C         39.64771       74.95405       45.20431
C         38.66370       74.34252       44.22791
C         37.74007       73.62235       45.19754
H         40.73353       73.16791       45.73904
H         39.09094       75.75652       45.72976
H         40.56081       75.39718       44.75254
H         38.15512       75.07436       43.56565
H         39.19507       73.58697       43.60397
H         37.13001       74.36847       45.75579
H         37.07196       72.90665       44.67296
N         41.34940       75.13481       47.69684
C         41.84102       75.60597       48.98809
C         43.21209       76.27631       48.83455
O         43.36780       77.42985       49.20662
C         40.80324       76.50419       49.73647
C         40.38689       77.82764       49.05548
C         39.60404       77.62443       47.79617
O         38.42593       76.97291       47.83664
O         40.00865       78.08217       46.73918
H         41.86197       75.41544       46.84617
H         42.01537       74.71794       49.63039
H         41.24922       76.76514       50.72088
H         39.88431       75.92383       49.95844
H         41.26636       78.46951       48.85344
H         39.73233       78.38851       49.75523
N         44.29657       75.61645       48.33140
C         44.28882       74.23398       47.89909
H         45.30973       73.93976       47.57615
H         43.97982       73.57277       48.73352
H         43.61821       74.08704       47.03128
H         45.19398       76.12330       48.27526
Ca        41.94988       77.70004       59.28578
O         39.02168       75.86508       59.39175
H         39.01229       74.87748       59.32066
H         38.60258       76.05501       60.26807
O         42.21749       74.81664       58.44678
H         41.75403       73.95011       58.32741
H         42.29989       75.18325       57.53057
O         38.46411       79.00959       59.22503
H         37.79297       78.56949       59.80528
H         38.69317       79.84621       59.70248
O         39.87080       78.04197       62.03870
H         40.49954       77.90695       62.79153
H         39.11429       78.54280       62.43474

Ca 1.0



