%chk=apoCaM-CA-Ng.loop1.water4.frame155.chk
%nprocshared=20
%mem=10GB
%nosave
#b3lyp/svp scf=(tight,noincore,xqc) Test 
#IOP(5/87=12) Density=Current Pop=(MK,readradii) iop(6/33=2) iop(6/42=6)

apoCaM-CA-Ng.loop1.water4.frame155 

   0  1 
C         80.92055       69.41987       50.71433
C         80.94775       69.32927       49.22168
O         81.24194       68.26277       48.70089
H         79.90234       69.70090       51.05198
H         81.19673       68.44393       51.16908
H         81.64964       70.18712       51.04863
N         80.66572       70.42824       48.46434
C         80.72166       70.41640       47.00785
C         81.83505       71.32123       46.51348
O         81.62754       72.08445       45.58100
C         79.33431       70.73726       46.39999
C         78.79678       72.11416       46.71516
O         79.51090       73.01144       47.42328
O         77.68900       72.42527       46.31273
H         80.43520       71.30803       48.94793
H         80.98989       69.39941       46.65443
H         78.60918       69.98627       46.78160
H         79.38350       70.62858       45.29396
N         83.06620       71.27236       47.10100
C         84.22143       72.00035       46.59420
C         85.39575       71.03076       46.53576
O         85.79567       70.58314       47.60243
C         84.54543       73.20457       47.49962
C         85.59444       74.10971       46.83340
C         85.96279       75.31311       47.70274
C         86.91915       76.24141       46.93913
N         87.33618       77.36961       47.76909
H         83.19269       70.68440       47.93916
H         83.98064       72.43524       45.61414
H         84.88489       72.85939       48.50069
H         83.62005       73.80704       47.63917
H         85.17284       74.47785       45.87137
H         86.51866       73.53085       46.61945
H         86.44804       74.95005       48.63488
H         85.04625       75.88253       47.97224
H         86.40571       76.62542       46.02835
H         87.82038       75.67357       46.61747
H         87.95922       77.99342       47.20670
H         86.50233       77.91666       48.08373
H         87.86741       77.02181       48.60011
N         86.01635       70.60328       45.39573
C         85.69687       70.93652       44.01254
C         85.90938       72.42052       43.72303
O         84.95057       73.09866       43.38101
C         84.26991       70.47789       43.61392
C         83.87754       69.09411       44.04328
O         82.88534       68.94744       44.73638
O         84.51943       68.00526       43.59542
H         86.79408       69.93482       45.52120
H         86.39754       70.37006       43.36691
H         84.18521       70.54538       42.51372
H         83.50426       71.15798       44.01930
N         87.11795       73.03981       43.82392
C         88.37871       72.36625       44.10880
C         89.52995       73.35594       44.24543
O         89.29532       74.55661       44.24417
H         87.11945       74.05500       43.64283
H         88.58357       71.65348       43.28494
H         88.31073       71.81084       45.06643
N         90.82100       72.96102       44.42382
C         91.29250       71.57875       44.39000
C         91.27904       71.00904       42.96878
O         90.96139       71.72088       42.02512
C         92.72132       71.51180       44.99872
C         93.73424       72.36976       44.28112
O         94.01776       72.15494       43.11376
O         94.34156       73.37848       44.93643
H         91.50843       73.70963       44.60650
H         90.64234       70.95621       45.04213
H         93.09298       70.46684       45.02252
H         92.65802       71.85726       46.05409
N         91.68071       69.72330       42.75127
C         91.86793       69.13430       41.43353
C         90.61026       68.79833       40.65597
O         90.77034       68.26556       39.56634
H         91.97346       69.15472       43.55890
H         92.41066       68.17316       41.56283
H         92.51956       69.80124       40.82576
N         89.34688       69.06630       41.10134
C         88.15692       68.74897       40.31073
C         87.64547       70.03944       39.70568
O         87.28579       70.95412       40.43524
C         87.09935       68.01279       41.15559
C         87.61011       66.65249       41.63968
O         85.94441       67.81104       40.38004
H         89.21625       69.56296       41.99389
H         88.42040       68.07020       39.47002
H         86.86873       68.63522       42.04760
H         85.16752       68.11275       40.91941
H         86.82921       66.15316       42.25202
H         87.84816       65.99933       40.77219
H         88.52223       66.77011       42.26185
N         87.70567       70.20708       38.35121
C         87.52958       71.50532       37.70789
C         86.09873       72.01710       37.71009
O         85.91140       73.19134       37.42877
C         88.13292       71.54650       36.26631
C         87.28907       70.85376       35.15734
C         89.59876       71.06482       36.25433
C         87.05267       69.35095       35.30703
H         88.05224       69.41648       37.79420
H         88.13721       72.21906       38.31000
H         88.16138       72.62055       35.97587
H         87.79846       71.02304       34.18329
H         86.29611       71.34791       35.09273
H         89.69729       69.98604       36.48894
H         90.04799       71.22858       35.25317
H         90.19381       71.63335       37.00025
H         86.45311       69.13149       36.21213
H         86.47275       68.98885       34.43124
H         88.01133       68.79447       35.33816
N         85.04091       71.19527       37.96279
C         83.65553       71.66164       37.97211
C         83.01103       71.34903       39.30105
O         83.61194       70.68252       40.12790
C         82.84643       71.03561       36.80269
C         82.89272       69.50356       36.77016
O         83.32953       71.52505       35.57957
H         85.21524       70.19771       38.14735
H         83.61004       72.76636       37.85615
H         81.77027       71.31396       36.90309
H         82.87514       72.39505       35.42105
H         82.24967       69.12941       35.94543
H         83.92500       69.14438       36.57909
H         82.52564       69.07339       37.72542
N         81.75378       71.80644       39.55603
C         81.02435       71.49320       40.77304
C         79.79094       70.68751       40.40183
O         79.49679       70.52332       39.22594
C         80.61422       72.81304       41.49091
C         81.79011       73.74953       41.78183
O         79.94080       72.54983       42.69025
H         81.27698       72.38405       38.84773
H         81.64809       70.87762       41.45711
H         79.91564       73.37003       40.82732
H         80.57902       72.10437       43.30405
H         82.29123       74.05846       40.84209
H         81.41060       74.66344       42.28984
H         82.52242       73.25169       42.44808
N         78.99573       70.18893       41.38194
C         77.70667       69.56840       41.13596
C         77.62886       68.19488       41.78230
O         76.52917       67.69566       41.98094
C         76.62224       70.56921       41.60348
C         76.64266       70.93813       43.10607
C         75.64041       72.06861       43.43397
C         76.03559       73.47081       42.90437
N         77.14917       74.06059       43.65292
H         79.28461       70.30583       42.36078
H         77.51621       69.42837       40.04853
H         75.61470       70.17776       41.34230
H         76.78567       71.48403       40.99796
H         77.64473       71.24557       43.45381
H         76.35954       70.02655       43.67396
H         75.51672       72.14792       44.53491
H         74.65632       71.78241       43.00579
H         75.16193       74.14753       43.02269
H         76.27466       73.44395       41.82168
H         77.41949       74.97170       43.21629
H         76.85628       74.24296       44.63952
H         77.97918       73.43724       43.65721
N         78.76435       67.49514       42.08787
C         78.74254       66.20336       42.76094
C         78.18540       66.39795       44.15662
O         78.72441       67.20178       44.90489
C         80.16595       65.57725       42.79473
C         80.17556       64.22395       43.52787
C         81.46496       63.43997       43.42141
O         81.41391       62.29313       43.00568
O         82.66839       63.92322       43.80576
H         79.68241       67.89149       41.83677
H         78.10185       65.50002       42.18185
H         80.87719       66.26915       43.29024
H         80.49413       65.42393       41.74308
H         79.36171       63.58936       43.10974
H         79.95454       64.39054       44.60160
N         77.09591       65.69839       44.57287
C         76.54471       65.86409       45.89979
H         75.67209       65.19090       46.03547
H         77.31189       65.61053       46.66265
H         76.21286       66.91437       46.04352
H         76.64832       65.02146       43.93653
Ca        83.38293       66.06704       43.88655
O         81.56220       66.26222       46.42810
H         81.85001       67.18345       46.21911
H         80.65930       66.19384       46.03670
O         84.54145       67.48502       47.06890
H         85.39129       67.75988       47.49521
H         83.83861       67.89654       47.63171
O         83.42430       64.22573       47.14698
H         83.37904       64.86204       47.90464
H         84.33660       63.84576       47.19620
O         83.69368       65.84531       40.98513
H         83.40028       64.97770       41.36063
H         82.97820       66.48249       41.23708

Ca 1.0



