%chk=apoCaM-CA-Ng.loop2.water4.frame1052.chk
%nprocshared=20
%mem=10GB
%nosave
#b3lyp/svp scf=(tight,noincore,xqc) Test 
#IOP(5/87=12) Density=Current Pop=(MK,readradii) iop(6/33=2) iop(6/42=6)

apoCaM-CA-Ng.loop2.water4.frame1052 

   -2  1 
C         18.28246       67.64555       71.07092
C         17.84578       68.53785       69.94299
O         17.77222       68.05918       68.82063
H         19.21053       68.04030       71.53300
H         17.47601       67.58486       71.83200
H         18.48615       66.61841       70.69885
N         17.51185       69.84737       70.12544
C         17.54935       70.55783       71.39909
C         18.50192       71.74993       71.27801
O         19.61078       71.54000       70.80767
C         16.09176       70.88094       71.81792
C         15.30027       71.62189       70.75984
O         14.31333       71.09920       70.26679
O         15.66553       72.84862       70.34349
H         17.19579       70.37628       69.30183
H         17.97348       69.91445       72.19585
H         16.06820       71.43184       72.78051
H         15.57982       69.90947       71.99899
N         18.15789       73.01536       71.67622
C         18.97415       74.22136       71.52551
C         19.10537       74.70391       70.07966
O         19.62028       75.79679       69.88620
C         20.33637       74.08205       72.22053
H         17.25559       73.16459       72.14340
H         18.42838       75.03805       72.05055
H         20.18952       73.79141       73.28273
H         20.97833       73.32564       71.72683
H         20.87797       75.05141       72.19854
N         18.64498       73.98078       69.01780
C         18.66241       74.46767       67.64167
C         17.65477       75.59474       67.46853
O         16.54726       75.47808       67.97530
C         18.34644       73.30611       66.65256
C         16.97457       72.70609       66.84101
O         16.84982       71.54833       67.19926
O         15.88236       73.46646       66.65434
H         18.25278       73.04704       69.17541
H         19.68723       74.80910       67.37328
H         19.11685       72.51626       66.79734
H         18.43717       73.67023       65.60963
N         17.93102       76.69219       66.71123
C         16.88422       77.64436       66.36387
C         15.88355       77.06771       65.35757
O         14.88317       77.72046       65.09797
H         18.87744       76.82847       66.32605
H         17.33180       78.54653       65.89559
H         16.36882       77.96922       67.29476
N         16.12161       75.89180       64.69726
C         15.24753       75.32601       63.66294
C         13.91969       74.83367       64.22470
O         13.67452       74.96568       65.41570
C         15.97988       74.16865       62.93881
C         17.21641       74.66736       62.23148
N         18.43747       74.16930       62.53020
O         17.10989       75.52504       61.36692
H         17.00685       75.40280       64.87965
H         15.02736       76.10922       62.90359
H         15.33605       73.71646       62.15803
H         16.23163       73.37116       63.67194
H         18.54986       73.43696       63.24456
H         19.27460       74.51356       62.03727
N         12.99826       74.25453       63.39848
C         11.69529       73.82930       63.87216
C         10.86748       73.22586       62.75492
O          9.94345       73.89412       62.31362
H         13.21219       74.14654       62.39631
H         11.17320       74.73521       64.25464
H         11.77557       73.11203       64.71543
N         11.04732       71.96037       62.26462
C         11.99415       70.96627       62.76637
C         12.71043       70.27105       61.61272
O         12.05792       69.84381       60.67000
C         11.21117       69.92197       63.59670
C         12.12243       68.80994       64.14301
O         10.59360       70.58134       64.67257
H         10.37125       71.63742       61.55351
H         12.73855       71.42421       63.45202
H         10.43377       69.45779       62.94543
H          9.84696       70.00405       64.97911
H         12.57344       68.22501       63.31736
H         12.94532       69.22719       64.75182
H         11.53470       68.11230       64.77447
N         14.05256       70.03721       61.68207
C         14.80436       69.30113       60.66172
C         14.25341       67.87538       60.52805
O         14.28919       67.16377       61.52206
C         16.32466       69.23426       61.03080
C         16.97214       70.62733       61.27209
C         17.12395       68.45584       59.96448
C         16.79495       71.61781       60.12272
H         14.54459       70.37143       62.52183
H         14.72759       69.85181       59.70977
H         16.43748       68.66921       61.98382
H         18.05754       70.48323       61.46663
H         16.55680       71.10086       62.18392
H         18.19434       68.39289       60.25390
H         16.75448       67.41293       59.87677
H         17.04868       68.93584       58.96867
H         17.34601       72.55174       60.35075
H         17.18686       71.20165       59.18278
H         15.72576       71.87683       59.98377
N         13.74953       67.34191       59.36960
C         13.59489       68.04393       58.09753
C         14.83785       67.89354       57.22247
O         15.64191       66.99937       57.44837
C         12.34394       67.49058       57.37317
C         12.01764       68.21110       56.09476
O         11.72401       69.52528       56.11465
O         12.00077       67.60489       55.03521
H         13.42598       66.36132       59.40954
H         13.38941       69.11473       58.28884
H         11.46380       67.58486       58.04587
H         12.49700       66.40842       57.15985
N         15.05105       68.77008       56.19994
C         16.17186       68.70738       55.26046
C         16.13782       69.95314       54.36639
O         15.09447       70.18139       53.76455
C         16.07412       67.45593       54.34824
C         17.22672       67.43842       53.36252
C         17.00497       67.74668       52.00850
C         18.53762       67.16920       53.79578
C         18.07719       67.81159       51.11313
C         19.60690       67.23012       52.89489
C         19.37729       67.55754       51.55630
H         14.37911       69.54620       56.10268
H         17.11915       68.64419       55.82606
H         15.10643       67.50902       53.80224
H         16.07196       66.50786       54.92668
H         16.00734       67.96809       51.65136
H         18.73424       66.93296       54.83420
H         17.90126       68.07135       50.07721
H         20.61573       67.03682       53.23673
H         20.20672       67.61856       50.86312
N         17.21449       70.77725       54.15270
C         18.56858       70.58013       54.65170
C         18.72068       71.06627       56.09064
O         17.97658       70.58078       56.92724
C         19.41398       71.28881       53.58230
C         18.54757       72.48930       53.26161
C         17.16609       71.85359       53.18158
H         18.86443       69.52035       54.63785
H         20.47503       71.48636       53.83304
H         19.42051       70.64967       52.66808
H         18.57111       73.15925       54.14197
H         18.83276       73.06963       52.35904
H         16.37158       72.60118       53.39514
H         17.00043       71.40139       52.17745
N         19.69195       71.95128       56.48317
C         19.93674       72.29510       57.88259
C         21.38530       71.97679       58.28384
O         22.08639       72.87855       58.71801
C         19.52476       73.77003       58.17058
C         20.27271       74.89391       57.41375
C         19.94620       74.95889       55.95260
O         20.82933       74.84768       55.11661
O         18.67920       75.18898       55.55959
H         20.31881       72.36910       55.78792
H         19.30159       71.68179       58.55087
H         19.68452       73.94212       59.25789
H         18.43376       73.88416       57.98580
H         21.36778       74.81133       57.55521
H         19.96221       75.86736       57.84913
N         21.94374       70.73090       58.20922
C         21.28656       69.51495       57.78031
H         20.22349       69.65032       57.55443
H         21.80268       69.11705       56.88100
H         21.34950       68.76013       58.59105
H         22.93116       70.62950       58.49209
Ca        13.98129       73.16402       67.82743
O         13.59789       76.38710       68.18785
H         12.77863       76.94146       68.14910
H         14.23575       76.92337       68.72242
O         10.99223       73.65526       67.73081
H         10.83920       74.24534       66.95096
H         10.71055       74.19653       68.51043
O         13.37913       71.11198       66.18135
H         12.48004       71.18924       66.58917
H         13.90383       70.58510       66.83545
O         12.74147       73.96292       70.55910
H         12.21155       74.77110       70.77324
H         12.63266       73.37572       71.34879

Ca 1.0



