%chk=apoCaM-CA-Ng.loop1.water6.frame610.chk
%nprocshared=20
%mem=10GB
%nosave
#b3lyp/svp scf=(tight,noincore,xqc) Test 
#IOP(5/87=12) Density=Current Pop=(MK,readradii) iop(6/33=2) iop(6/42=6)

apoCaM-CA-Ng.loop1.water6.frame610 

   0  1 
C         55.95109       15.47020       73.50054
C         54.88491       16.51667       73.35234
O         53.71838       16.15853       73.27534
H         56.95891       15.92534       73.60191
H         55.74880       14.87809       74.41967
H         55.94603       14.79226       72.62365
N         55.20818       17.84064       73.35363
C         54.20284       18.89048       73.45294
C         54.62090       20.16262       72.73044
O         55.74152       20.61176       72.91533
C         53.88475       19.15240       74.94602
C         55.06050       19.51323       75.81929
O         55.04104       20.64751       76.54181
O         55.99881       18.74351       75.94629
H         56.19812       18.09865       73.48839
H         53.23884       18.55127       73.01336
H         53.43836       18.22871       75.37115
H         53.11827       19.94989       75.01229
N         53.71576       20.84509       71.96210
C         53.94886       22.18765       71.43171
C         52.99779       23.15431       72.13976
O         51.78952       22.99140       72.06034
C         53.83043       22.25677       69.89340
C         52.50717       21.74863       69.30068
C         52.40691       22.11241       67.81344
C         51.09245       21.59944       67.21125
N         50.92307       22.07611       65.83920
H         52.77355       20.44445       71.83988
H         54.98884       22.51110       71.65770
H         54.65840       21.67248       69.43583
H         53.97086       23.32069       69.60973
H         51.64567       22.22656       69.80364
H         52.44015       20.64778       69.44029
H         53.26606       21.69089       67.24669
H         52.43417       23.22173       67.72538
H         50.23437       21.96021       67.82110
H         51.09098       20.48670       67.22652
H         50.86796       23.12117       65.83198
H         51.72039       21.76062       65.24115
H         50.03065       21.69262       65.45221
N         53.50581       24.14846       72.92141
C         52.72038       25.03668       73.78539
C         53.65826       25.93402       74.57711
O         54.61196       25.41823       75.12834
C         51.77695       24.26808       74.75234
C         52.24432       22.93936       75.31299
O         51.59730       21.94805       75.01434
O         53.29003       22.76546       76.15071
H         54.53034       24.25020       72.93898
H         52.05133       25.67181       73.17283
H         50.86463       24.03142       74.15978
H         51.42855       24.94262       75.56430
N         53.48738       27.27629       74.73595
C         52.39369       28.07946       74.22341
C         52.43716       28.28021       72.72922
O         53.19807       27.62517       72.03018
H         54.17231       27.77052       75.33046
H         52.50332       29.09252       74.67013
H         51.41011       27.67831       74.55105
N         51.65713       29.25599       72.18504
C         51.62353       29.58695       70.76143
C         52.97651       30.00153       70.17003
O         53.03207       30.20230       68.96418
C         50.56723       30.69325       70.50582
C         50.85127       32.00923       71.19655
O         51.94810       32.18240       71.96111
O         50.06609       32.93441       71.06675
H         51.04622       29.78542       72.82770
H         51.29471       28.67441       70.21715
H         49.57910       30.32601       70.86042
H         50.48538       30.88025       69.41358
N         54.10447       30.14917       70.92754
C         55.39751       30.53149       70.38185
C         56.05226       29.50910       69.45982
O         57.15211       29.79693       69.01300
H         54.05763       30.04218       71.94876
H         56.09929       30.68988       71.23041
H         55.29232       31.49960       69.84602
N         55.47222       28.31547       69.12398
C         56.10646       27.33161       68.24287
C         56.24758       26.01167       68.97779
O         55.25790       25.49911       69.47671
C         55.33551       27.19197       66.90596
C         53.87691       26.74282       67.03991
O         55.35516       28.42376       66.23094
H         54.54634       28.07865       69.50079
H         57.12544       27.66772       67.95287
H         55.85063       26.42410       66.28040
H         56.26267       28.52494       65.83915
H         53.80122       25.74236       67.50969
H         53.28694       27.47627       67.62718
H         53.42544       26.66889       66.02759
N         57.47612       25.43628       69.13228
C         57.69925       24.27687       69.99371
C         58.08628       24.77394       71.37851
O         57.80259       24.09014       72.35337
C         58.76345       23.31463       69.39353
C         58.48008       22.94462       67.91367
C         58.92736       22.04550       70.25323
C         57.14403       22.24344       67.66059
H         58.29877       25.91452       68.73637
H         56.74184       23.72196       70.10674
H         59.74289       23.84404       69.39465
H         59.29984       22.28824       67.54708
H         58.50434       23.86790       67.29594
H         59.25396       22.30063       71.28182
H         57.97451       21.48054       70.32338
H         59.70698       21.38501       69.81799
H         57.05203       22.02131       66.57645
H         57.08137       21.28452       68.21306
H         56.29613       22.89800       67.94751
N         58.64390       26.00680       71.54329
C         58.86970       26.64996       72.82330
C         60.32895       27.01964       72.95290
O         60.91517       27.50100       71.98866
C         57.98133       27.90845       72.90698
C         56.49819       27.53054       72.79440
O         58.20273       28.54906       74.13649
H         58.87868       26.57518       70.71690
H         58.58321       25.98749       73.67007
H         58.25069       28.59450       72.06870
H         57.84402       29.47035       74.04733
H         56.22649       26.82940       73.60910
H         55.86493       28.43708       72.87321
H         56.28089       27.04489       71.82016
N         60.96458       26.88608       74.14626
C         62.36780       27.20849       74.34140
C         63.03676       26.07861       75.09629
O         63.96005       25.48356       74.56266
C         62.51852       28.58827       75.02998
C         63.99266       28.97954       75.20035
O         61.87049       28.60733       76.27463
H         60.41321       26.58111       74.96412
H         62.87563       27.30982       73.35368
H         62.03439       29.33327       74.35491
H         61.73008       29.56124       76.51185
H         64.51513       28.26946       75.87584
H         64.50634       28.98596       74.21512
H         64.06504       29.99782       75.63720
N         62.62835       25.74680       76.35901
C         63.28159       24.72212       77.16131
C         62.26503       23.68076       77.60859
O         61.07080       23.92114       77.50954
C         63.95741       25.45122       78.34651
C         64.99880       24.62765       79.12112
C         65.80887       25.50487       80.09685
C         65.00400       25.98088       81.31670
N         65.81426       26.86493       82.15670
H         61.85728       26.26910       76.79598
H         64.06204       24.21889       76.55250
H         63.18042       25.86852       79.02308
H         64.51496       26.30780       77.90535
H         65.71980       24.22820       78.37516
H         64.53918       23.77617       79.66343
H         66.21510       26.38126       79.54409
H         66.67217       24.91306       80.47038
H         64.69044       25.09176       81.90803
H         64.09293       26.53152       81.00256
H         65.27326       27.11819       83.01480
H         66.70144       26.39059       82.44276
H         66.03994       27.74187       81.63214
N         62.68076       22.48336       78.10985
C         61.76185       21.48741       78.65193
C         60.70587       21.03377       77.64397
O         59.53555       21.14767       77.97881
C         62.53725       20.27640       79.22931
C         61.68681       19.32210       80.09194
C         61.27664       19.92430       81.41377
O         61.74224       19.39252       82.56048
O         60.51493       20.87598       81.46502
H         63.69170       22.29057       78.13889
H         61.24726       21.98273       79.49818
H         63.37803       20.63408       79.86234
H         62.97718       19.68992       78.39820
H         62.31876       18.43623       80.31743
H         60.79324       18.96570       79.53627
N         60.97116       20.50480       76.41085
C         62.27513       20.34210       75.80255
H         63.10574       20.70112       76.42973
H         62.44009       19.26913       75.57239
H         62.30146       20.91592       74.85176
H         60.17134       20.20537       75.83274
Ca        54.92118       23.92571       77.21015
O         58.69559       22.50067       75.36316
H         58.39763       21.57455       75.18013
H         58.27879       22.72294       76.23348
O         54.97673       26.26586       78.90617
H         55.86188       26.40748       78.48545
H         54.32633       26.46047       78.18486
O         55.66473       22.79831       74.57051
H         56.18578       22.01365       74.85841
H         56.34846       23.46313       74.31520
O         57.76722       25.49750       76.25845
H         57.94680       26.27755       76.84024
H         58.66590       25.14775       76.03572
O         57.33544       23.29706       79.10677
H         58.26800       23.03614       79.31059
H         57.22349       24.17462       79.55099
O         53.65855       22.58300       79.40503
H         54.12537       22.25666       80.21412
H         53.54109       23.55420       79.56064

Ca 1.0



