%chk=apoCaM-CA-Ng.loop3.water5.frame172.chk
%nprocshared=20
%mem=10GB
%nosave
#b3lyp/svp scf=(tight,noincore,xqc) Test 
#IOP(5/87=12) Density=Current Pop=(MK,readradii) iop(6/33=2) iop(6/42=6)

apoCaM-CA-Ng.loop3.water5.frame172 

   0  1 
C         46.09090       55.98287       18.97374
C         44.73221       55.59067       18.47445
O         43.93861       56.47612       18.19574
H         46.61144       56.59552       18.20890
H         45.97784       56.58229       19.90235
H         46.71098       55.09262       19.20709
N         44.38405       54.27435       18.35471
C         43.05907       53.81020       17.94328
C         41.98314       54.16951       18.96665
O         40.81005       53.99174       18.66819
C         42.69798       54.28878       16.51528
C         43.67491       53.81417       15.46757
O         43.47137       54.07996       14.29535
O         44.75831       53.08210       15.79482
H         45.08597       53.55443       18.58364
H         43.06552       52.69807       17.89979
H         42.61935       55.39324       16.47169
H         41.70219       53.87618       16.24333
N         42.30987       54.58697       20.22663
C         41.33227       54.88477       21.26774
C         41.51641       56.29949       21.81283
O         40.94313       56.61415       22.84642
C         41.43927       53.80617       22.37232
C         42.70479       53.86658       23.24921
C         42.72889       52.67322       24.22048
C         43.78053       52.80136       25.33549
N         45.14517       52.93335       24.82684
H         43.30123       54.65525       20.49505
H         40.29590       54.80379       20.87398
H         41.36594       52.81068       21.88014
H         40.56280       53.90915       23.04981
H         42.68372       54.81455       23.82805
H         43.62449       53.84430       22.62877
H         42.89381       51.73777       23.64061
H         41.74333       52.59258       24.72899
H         43.71581       51.89288       25.97564
H         43.53696       53.68200       25.97008
H         45.25303       53.82967       24.30069
H         45.80288       52.95424       25.63996
H         45.38642       52.12136       24.21466
N         42.30909       57.20538       21.16565
C         42.65442       58.52097       21.69290
C         41.43244       59.38330       21.99310
O         40.34014       59.10073       21.52019
C         43.59555       59.22453       20.68365
C         44.10893       60.54579       21.15626
O         43.84969       61.55649       20.52803
O         44.87129       60.62131       22.26225
H         42.72849       56.93570       20.26898
H         43.19637       58.34791       22.64943
H         43.04803       59.36200       19.72366
H         44.47727       58.57897       20.48111
N         41.56403       60.44186       22.84163
C         40.48083       61.31862       23.24576
C         39.96837       62.15380       22.10216
O         38.77253       62.15005       21.84954
H         42.48379       60.61898       23.27059
H         40.87235       62.02505       24.00938
H         39.66440       60.72801       23.71571
N         40.83627       62.89955       21.36338
C         40.42228       63.75765       20.25804
C         40.61576       63.08587       18.90651
O         40.31025       63.71681       17.90142
C         41.14266       65.12501       20.30469
C         42.67045       65.01460       20.15403
N         43.22709       66.24764       19.62074
O         43.24179       64.75790       21.40549
H         41.83970       62.79834       21.56199
H         39.33251       63.96827       20.33221
H         40.89728       65.68363       21.23499
H         40.73905       65.72452       19.45930
H         42.85062       66.38243       18.65411
H         44.24879       66.08375       19.50412
N         41.05183       61.79965       18.78790
C         41.16089       61.12877       17.50669
C         42.23918       61.73922       16.65412
O         41.94398       62.21657       15.56914
H         41.26673       61.24565       19.62844
H         40.17711       61.16642       16.98732
H         41.42149       60.06141       17.66740
N         43.52963       61.73087       17.08928
C         44.64188       62.25022       16.30408
C         45.30519       63.40636       17.00125
O         44.99150       63.70943       18.14113
C         45.67302       61.12523       16.08074
C         45.11173       60.04423       15.20111
C         44.81408       60.33235       13.85998
C         44.88942       58.74956       15.69540
C         44.29804       59.34374       13.02388
C         44.36674       57.76044       14.85585
C         44.06927       58.05711       13.51589
O         43.56539       57.12001       12.69000
H         43.73713       61.31982       18.01001
H         44.28429       62.64680       15.33050
H         45.97247       60.71930       17.07396
H         46.59447       61.50819       15.59137
H         44.98942       61.32323       13.45991
H         45.11370       58.50866       16.72730
H         44.07654       59.57931       11.99102
H         44.19585       56.76759       15.24696
H         43.38248       56.21888       12.98397
N         46.25093       64.11570       16.32461
C         46.94132       65.25102       16.90364
C         46.06050       66.46741       16.71022
O         45.61268       67.04205       17.68902
C         48.36002       65.41125       16.27139
C         49.15067       64.07157       16.20890
C         49.16827       66.49474       17.00467
C         49.36872       63.37768       17.55287
H         46.44174       63.87062       15.34226
H         47.08624       65.06501       17.99138
H         48.25085       65.73435       15.21365
H         50.13841       64.25088       15.73206
H         48.61321       63.35688       15.55041
H         50.16406       66.61539       16.52662
H         48.64444       67.47207       16.95901
H         49.31656       66.22917       18.07223
H         49.97680       64.00521       18.23316
H         48.39740       63.13940       18.02976
H         49.90840       62.42139       17.38429
N         45.72987       66.88718       15.45870
C         44.83010       68.00367       15.19395
C         45.34396       69.29148       15.80512
O         44.57740       69.96031       16.48348
C         44.62764       68.19320       13.68127
O         44.02491       67.05431       13.12218
H         46.12215       66.37223       14.65545
H         43.82732       67.78037       15.62524
H         45.59114       68.43083       13.17261
H         43.94889       69.05495       13.50137
H         44.74426       66.51015       12.70875
N         46.63590       69.69375       15.61626
C         47.18048       70.96229       16.09855
C         47.11892       71.15329       17.61469
O         47.47473       72.23869       18.05774
C         46.48608       72.12423       15.37313
H         47.26695       69.08397       15.07486
H         48.25367       71.01490       15.80882
H         46.96196       73.08991       15.64849
H         46.59420       71.99474       14.27490
H         45.40765       72.18114       15.62375
N         46.72291       70.17043       18.47845
C         46.63304       70.36654       19.92202
C         47.66776       69.53411       20.64698
O         48.30716       68.68952       20.03215
C         45.21880       70.02648       20.40372
H         46.50019       69.23712       18.11720
H         46.84297       71.42757       20.17748
H         44.47708       70.67644       19.89338
H         44.97217       68.96974       20.16617
H         45.12486       70.17663       21.49999
N         47.95196       69.79949       21.95759
C         48.98317       69.11811       22.73947
C         50.38997       69.26849       22.15352
O         51.30314       68.67622       22.71254
C         48.61838       67.63232       22.95897
C         47.30143       67.49105       23.74067
C         46.98464       66.05014       24.01282
O         47.83753       65.29694       24.73312
O         45.94466       65.56070       23.60350
H         47.42500       70.55033       22.43056
H         49.02361       69.58008       23.75143
H         49.42115       67.15134       23.56036
H         48.55922       67.09613       21.99064
H         46.46929       67.95870       23.17209
H         47.39033       68.01375       24.71740
N         50.66011       70.05284       21.06598
C         51.97924       70.18178       20.48116
H         52.74068       69.56631       21.00333
H         51.93855       69.85709       19.41976
H         52.29522       71.24483       20.51858
H         49.92019       70.60518       20.61604
Ca        45.29472       63.81184       21.07263
O         46.47797       66.31432       20.75514
H         46.78757       66.66313       19.88514
H         45.83167       66.98591       21.08419
O         47.13938       61.39407       19.83133
H         48.00292       61.18953       19.39341
H         46.76810       60.50627       20.06158
O         47.10870       62.05061       23.36869
H         47.33538       62.85966       23.89002
H         47.47448       61.30152       23.90265
O         48.46856       64.15286       20.93588
H         49.28906       63.71967       21.28005
H         48.79845       64.89798       20.37351
O         43.70974       63.08319       23.86891
H         44.50860       63.38619       24.36837
H         43.07739       63.84285       23.92642

Ca 1.0



