%chk=apoCaM-CA-Ng.loop2.water3.frame282.chk
%nprocshared=20
%mem=10GB
%nosave
#b3lyp/svp scf=(tight,noincore,xqc) Test 
#IOP(5/87=12) Density=Current Pop=(MK,readradii) iop(6/33=2) iop(6/42=6)

apoCaM-CA-Ng.loop2.water3.frame282 

   -2  1 
C         48.43519       51.13565       36.98183
C         49.46109       51.86985       37.79483
O         50.29576       51.23169       38.41770
H         47.41730       51.39537       37.34133
H         48.52990       51.42232       35.91358
H         48.57235       50.03615       37.06998
N         49.46019       53.23196       37.82640
C         50.42010       54.01509       38.60085
C         50.24369       53.72933       40.08281
O         49.15864       53.94598       40.60594
C         50.22477       55.51884       38.31137
C         51.23039       56.41464       38.99125
O         51.16429       57.62123       38.82285
O         52.20782       55.91260       39.77172
H         48.75044       53.72593       37.26257
H         51.44596       53.73961       38.26739
H         49.20155       55.82406       38.62183
H         50.31890       55.68110       37.21528
N         51.27503       53.21874       40.81608
C         51.14281       52.83905       42.21978
C         50.06574       51.78482       42.34601
O         49.16150       51.95256       43.15070
C         52.47390       52.31284       42.76467
H         52.17913       53.05907       40.34501
H         50.87122       53.73161       42.82835
H         52.36511       52.04754       43.83856
H         52.81240       51.41714       42.20308
H         53.24998       53.10422       42.68160
N         50.06279       50.71885       41.49005
C         48.98453       49.74320       41.36060
C         48.94074       48.73935       42.50453
O         48.08919       47.86091       42.47433
C         47.63926       50.46910       41.09820
C         46.53549       49.54102       40.68550
O         45.40728       49.47514       41.41679
O         46.64390       48.86369       39.67558
H         50.83479       50.64465       40.81150
H         49.20732       49.13872       40.45243
H         47.78203       51.20111       40.27362
H         47.30876       51.02395       41.99890
N         49.86609       48.74511       43.50783
C         49.90248       47.73774       44.55288
C         50.29179       46.34850       44.06827
O         50.35570       45.46899       44.91543
H         50.58342       49.48136       43.55140
H         48.91635       47.70270       45.06548
H         50.66508       48.03597       45.30505
N         50.57596       46.05872       42.75816
C         50.97338       44.72641       42.30446
C         52.33453       44.79224       41.61183
O         52.86299       45.88065       41.42638
C         49.86726       44.16913       41.37787
C         50.02270       42.69490       41.08701
N         50.17521       42.24165       39.82240
O         50.00489       41.89716       42.01276
H         50.51223       46.79283       42.04052
H         51.06625       44.04776       43.17957
H         49.83347       44.76897       40.44155
H         48.88538       44.28381       41.88678
H         50.19453       42.89135       39.02955
H         50.27997       41.23362       39.63498
N         52.97567       43.65146       41.23038
C         54.28332       43.62356       40.59583
C         54.22351       42.86673       39.29144
O         53.76136       41.73371       39.29379
H         52.54390       42.74123       41.43776
H         54.97667       43.08001       41.27201
H         54.69924       44.64234       40.43964
N         54.72600       43.40358       38.14095
C         54.78291       42.64000       36.89485
C         53.46795       42.68240       36.13047
O         53.25636       41.81240       35.29691
C         55.98977       43.04208       36.00203
C         55.94304       44.48410       35.46866
O         57.20077       42.81201       36.67971
H         55.16710       44.33301       38.18798
H         54.96927       41.57474       37.16273
H         55.98513       42.37338       35.11294
H         57.28433       43.49040       37.39952
H         56.81591       44.66120       34.80479
H         55.02564       44.65442       34.87908
H         55.97657       45.22963       36.28789
N         52.57047       43.69526       36.30738
C         51.30521       43.79035       35.58166
C         50.14997       44.03066       36.53222
O         50.28038       44.80563       37.47063
C         51.32996       44.89734       34.48797
C         51.77126       46.27575       35.04514
C         52.20090       44.44028       33.30321
C         51.60793       47.41563       34.04071
H         52.81056       44.46208       36.95277
H         51.08620       42.83967       35.04516
H         50.29244       44.98899       34.09180
H         52.83135       46.23296       35.37626
H         51.14360       46.54101       35.91960
H         51.82869       43.46878       32.91168
H         52.15194       45.15817       32.46165
H         53.25492       44.30861       33.60399
H         50.54569       47.49411       33.72501
H         51.90537       48.37129       34.52114
H         52.24997       47.27181       33.14961
N         48.93559       43.48058       36.25320
C         47.72407       43.79792       36.99602
C         46.82027       42.57482       37.04323
O         46.47863       42.13139       38.13007
C         47.04141       45.01481       36.33801
C         45.91395       45.59317       37.15186
O         45.54199       45.04584       38.32609
O         45.35512       46.60484       36.76062
H         48.85212       42.93734       35.38171
H         47.99372       44.10000       38.03461
H         46.67956       44.75505       35.31954
H         47.79981       45.82221       36.23771
N         46.44157       41.95118       35.88637
C         45.64216       40.73338       35.83203
C         44.47360       40.94953       34.88468
O         44.72133       41.30248       33.74146
C         46.53758       39.56407       35.37409
C         45.78653       38.25057       35.35053
C         45.97851       37.30781       36.37528
C         44.88392       37.95511       34.31166
C         45.26890       36.10294       36.36836
C         44.18333       36.74667       34.30461
C         44.37221       35.82274       35.33424
H         46.77953       42.32674       34.98811
H         45.28858       40.46736       36.84844
H         47.36280       39.49946       36.11803
H         47.00806       39.75071       34.38400
H         46.66373       37.51106       37.18872
H         44.72515       38.65282       33.50070
H         45.41250       35.38707       37.16699
H         43.49307       36.52776       33.50012
H         43.82479       34.88934       35.32964
N         43.17433       40.73159       35.25508
C         42.02547       40.97319       34.39344
C         41.98311       42.38770       33.84247
O         41.79765       42.55787       32.64565
C         40.82671       40.73808       35.32531
C         41.35425       39.65646       36.23513
C         42.76553       40.16017       36.52244
H         42.02912       40.22248       33.57047
H         40.65895       41.62698       35.97512
H         39.87658       40.50482       34.79895
H         40.74459       39.44530       37.13871
H         41.42997       38.72290       35.62928
H         42.79198       40.95435       37.30025
H         43.37326       39.28035       36.82625
N         42.15025       43.45382       34.67742
C         42.03766       44.84855       34.24967
C         43.07654       45.25198       33.20847
O         42.92369       46.31848       32.62774
C         42.22667       45.79218       35.45319
C         41.18766       45.63192       36.57334
C         41.61501       46.47389       37.73820
O         40.91901       47.39196       38.14028
O         42.80172       46.21671       38.32154
H         42.34197       43.25121       35.66958
H         41.02507       44.99152       33.81134
H         42.19876       46.85327       35.11724
H         43.23812       45.58210       35.86037
H         41.12574       44.58455       36.93126
H         40.18577       45.93655       36.20097
N         44.18261       44.50142       32.95487
C         45.18429       44.90721       31.99371
H         46.00644       44.16068       31.96599
H         44.73220       44.98033       30.98213
H         45.61051       45.89158       32.28347
H         44.34525       43.63541       33.47640
Ca        43.71064       47.50531       39.92252
O         41.84093       49.55670       40.92963
H         42.03585       49.73337       39.97481
H         41.17717       48.82191       40.91453
O         44.85233       46.37975       42.48378
H         44.13991       45.70010       42.37872
H         44.36298       47.22839       42.62827
O         43.76409       49.68072       37.54549
H         43.41518       49.33995       36.68369
H         43.47830       50.62847       37.57257

Ca 1.0



