%chk=apoCaM-CA-Ng.loop2.water3.frame169.chk
%nprocshared=20
%mem=10GB
%nosave
#b3lyp/svp scf=(tight,noincore,xqc) Test 
#IOP(5/87=12) Density=Current Pop=(MK,readradii) iop(6/33=2) iop(6/42=6)

apoCaM-CA-Ng.loop2.water3.frame169 

   -2  1 
C        100.92351       59.20372       25.85266
C        101.78905       59.93539       26.83647
O        101.58071       59.78574       28.03167
H         99.86687       59.51947       25.98014
H        101.22997       59.41603       24.80619
H        101.00310       58.11091       26.02803
N        102.77547       60.76535       26.39882
C        103.65070       61.52047       27.28538
C        103.39660       63.01503       27.15281
O        104.24998       63.77968       27.57318
C        105.12097       61.16245       26.98261
C        105.39619       59.70889       27.25075
O        105.22018       59.20603       28.48839
O        105.79326       58.98143       26.35507
H        102.90768       60.89007       25.38261
H        103.46814       61.27761       28.35591
H        105.79740       61.75237       27.63898
H        105.35863       61.41142       25.92465
N        102.21005       63.49591       26.66010
C        101.81224       64.90354       26.59567
C        101.65459       65.54626       27.99840
O        100.76271       64.77793       28.75382
C        102.71370       65.71194       25.65571
H        101.50170       62.82393       26.33164
H        100.79373       64.94167       26.14625
H        103.76866       65.73092       25.99185
H        102.68695       65.26593       24.63946
H        102.34105       66.75697       25.59022
N        102.92612       65.67759       28.71248
C        102.81171       66.16850       30.09672
C        103.53899       65.19707       30.99759
O        104.42662       65.57892       31.74664
C        103.24220       67.65151       30.22459
C        104.63220       67.94828       29.71390
O        104.78134       68.72196       28.78156
O        105.71499       67.37535       30.27106
H        103.61994       66.22320       28.15823
H        101.75653       66.13149       30.45139
H        103.16436       67.96900       31.28666
H        102.51632       68.25798       29.63871
N        103.13729       63.89521       31.00631
C        103.66953       62.89852       31.90950
C        102.59032       62.57132       32.89735
O        102.77293       62.84381       34.07559
H        102.36007       63.60890       30.39252
H        104.55413       63.28574       32.46058
H        103.99341       61.99749       31.34423
N        101.42027       62.00369       32.48594
C        100.30972       61.75815       33.39716
C        100.26779       60.29807       33.78706
O        100.88075       59.47085       33.12603
C         98.98417       62.24445       32.77503
C         98.98844       63.73610       32.53968
N         99.04513       64.59771       33.58222
O         98.92406       64.17108       31.39992
H        101.32133       61.71727       31.49882
H        100.48314       62.30631       34.34804
H         98.12750       62.00406       33.43935
H         98.82767       61.71268       31.80875
H         99.07951       64.25012       34.55145
H         99.03696       65.61622       33.42243
N         99.67043       59.94569       34.96195
C         99.74133       58.60967       35.53058
C         98.36558       58.10545       35.86002
O         97.68126       58.73658       36.65265
H         99.21076       60.68077       35.52151
H        100.32426       58.65647       36.47425
H        100.26503       57.90747       34.84799
N         97.88206       56.98362       35.25871
C         96.51807       56.50385       35.46006
C         95.64476       56.89995       34.27659
O         94.45648       56.60274       34.29329
C         96.50635       54.97252       35.72164
C         96.84584       54.11576       34.48750
O         97.35257       54.65128       36.79816
H         98.46910       56.51334       34.55380
H         96.07634       56.99430       36.35485
H         95.47366       54.68273       36.01414
H         98.29058       54.69319       36.47253
H         97.85311       54.34750       34.08466
H         96.81231       53.03903       34.75524
H         96.08866       54.27865       33.69567
N         96.16865       57.58269       33.21751
C         95.42758       58.00026       32.03966
C         95.51933       59.51356       31.89378
O         96.12408       60.16745       32.73685
C         95.99103       57.25711       30.78121
C         97.48664       57.59034       30.50865
C         95.77257       55.74285       30.93401
C         98.01688       57.00190       29.20112
H         97.16533       57.83637       33.21958
H         94.34925       57.74099       32.13190
H         95.39797       57.57457       29.89941
H         98.13062       57.22177       31.33470
H         97.60887       58.69110       30.43969
H         94.70480       55.52713       31.15235
H         96.03086       55.19960       30.00415
H         96.39974       55.34655       31.75508
H         98.00105       55.89368       29.21930
H         97.41586       57.36963       28.34317
H         99.07192       57.31822       29.05840
N         94.98882       60.13158       30.80511
C         95.16606       61.54685       30.51468
C         93.81797       62.20844       30.17627
O         93.79385       63.29212       29.61340
C         96.20356       61.60393       29.37539
C         96.80022       62.95660       29.13349
O         97.68259       63.07052       28.29908
O         96.42951       64.02804       29.86041
H         94.51964       59.56057       30.08503
H         95.62087       62.07896       31.37984
H         95.77394       61.18525       28.44225
H         97.06535       60.96319       29.66899
N         92.64732       61.60670       30.54209
C         91.30225       62.10919       30.25432
C         91.01846       62.07411       28.75669
O         91.14232       61.00132       28.18047
C         90.28728       61.18269       30.97593
C         88.84010       61.43158       30.62238
C         88.20484       62.64450       30.93228
C         88.10934       60.42034       29.97166
C         86.86103       62.84004       30.58964
C         86.77116       60.61927       29.63216
C         86.14611       61.82843       29.94015
H         92.71014       60.73459       31.08554
H         91.18227       63.13267       30.66575
H         90.42144       61.27109       32.07622
H         90.53541       60.13322       30.70052
H         88.74590       63.43447       31.43729
H         88.57616       59.47503       29.72249
H         86.37139       63.77494       30.82779
H         86.22126       59.83339       29.13028
H         85.10759       61.97857       29.67585
N         90.56640       63.16475       28.05396
C         90.14464       63.08196       26.66487
C         91.31183       62.96840       25.70757
O         91.07247       62.69547       24.53915
C         89.32643       64.35864       26.45933
C         90.05824       65.33932       27.35289
C         90.33655       64.48942       28.59497
H         89.47831       62.20330       26.51100
H         89.18119       64.66858       25.40175
H         88.32243       64.20399       26.91759
H         91.02913       65.57226       26.85916
H         89.52690       66.29333       27.55610
H         91.21775       64.90530       29.12820
H         89.45382       64.44969       29.26603
N         92.59908       63.15073       26.11587
C         93.72751       62.89039       25.23866
C         93.79127       61.39906       24.98158
O         93.75841       60.98910       23.83016
C         95.04812       63.36689       25.86363
C         95.09820       64.89543       26.04293
C         96.45042       65.28767       26.54805
O         97.44340       65.02642       25.88633
O         96.60072       65.85595       27.75694
H         92.78865       63.45259       27.08184
H         93.60672       63.44477       24.28010
H         95.87433       63.06417       25.18199
H         95.20766       62.87378       26.84393
H         94.31849       65.22297       26.76316
H         94.92532       65.40461       25.07088
N         93.85091       60.52955       26.03184
C         93.88459       59.08973       25.88623
H         94.79806       58.69300       26.37639
H         92.99324       58.65244       26.38410
H         93.88511       58.77183       24.82304
H         93.84994       60.90184       26.99332
Ca        98.73977       65.74028       28.42823
O         98.86977       67.94685       31.07300
H         99.66193       68.07382       31.65323
H         98.29830       68.73454       31.25701
O         95.93075       66.78069       30.96196
H         95.89812       67.45692       31.68438
H         95.00230       66.73521       30.62082
O         99.58997       68.32119       27.66080
H         99.91388       69.23732       27.47769
H         99.54507       67.88663       26.77165

Ca 1.0



