%chk=apoCaM-CA-Ng.loop3.water4.frame1011.chk
%nprocshared=20
%mem=10GB
%nosave
#b3lyp/svp scf=(tight,noincore,xqc) Test 
#IOP(5/87=12) Density=Current Pop=(MK,readradii) iop(6/33=2) iop(6/42=6)

apoCaM-CA-Ng.loop3.water4.frame1011 

   0  1 
C         28.21416       29.42920        9.70902
C         27.15401       29.09585        8.70314
O         26.04320       29.59536        8.81513
H         29.08026       29.89783        9.19645
H         27.82486       30.13567       10.47291
H         28.54870       28.50070       10.21745
N         27.43673       28.24917        7.67511
C         26.45627       27.88557        6.66049
C         25.22518       27.22369        7.26926
O         24.13248       27.72400        7.05418
C         27.08381       27.05749        5.50505
C         27.84458       25.78748        5.81394
O         28.29359       25.13446        4.88578
O         28.10296       25.38359        7.06917
H         28.39352       27.86999        7.60862
H         26.10446       28.82022        6.16506
H         27.80314       27.71652        4.97207
H         26.26709       26.81086        4.79434
N         25.31687       26.13265        8.07333
C         24.15667       25.44488        8.63395
C         23.39359       24.74565        7.51790
O         23.97040       23.93187        6.80936
C         24.62035       24.45830        9.72599
C         25.18486       25.24995       10.92888
C         25.90008       24.39519       11.97897
C         25.01573       23.32388       12.62455
N         25.75748       22.61914       13.67052
H         26.24925       25.79260        8.32555
H         23.48953       26.18293        9.13420
H         25.39029       23.77745        9.30074
H         23.76048       23.84725       10.07640
H         24.35706       25.82111       11.40557
H         25.93864       25.98729       10.58038
H         26.26216       25.08465       12.77376
H         26.78482       23.91117       11.51147
H         24.68987       22.59259       11.85347
H         24.11401       23.79843       13.07065
H         26.02922       23.28795       14.42802
H         25.15243       21.87211       14.08018
H         26.61750       22.17849       13.26937
N         22.08160       25.04949        7.29408
C         21.27881       24.50224        6.19435
C         21.68642       25.03939        4.81356
O         21.03209       24.69235        3.83966
C         19.77888       24.81558        6.43604
C         19.44226       26.28538        6.43885
O         20.39635       27.21379        6.24220
O         18.28919       26.64097        6.62035
H         21.62507       25.69225        7.95893
H         21.36984       23.39348        6.19993
H         19.47670       24.38228        7.41402
H         19.17025       24.32171        5.64694
N         22.73501       25.89501        4.65093
C         23.10728       26.52368        3.39786
C         24.36965       25.91333        2.85363
O         24.75454       24.84511        3.31015
H         23.32661       26.13652        5.44650
H         23.24950       27.60018        3.60437
H         22.32082       26.41993        2.61952
N         25.07184       26.47881        1.83494
C         24.87455       27.83313        1.31708
C         25.53075       28.80831        2.29216
O         26.69346       28.58503        2.60081
C         25.56653       27.91442       -0.06577
C         25.49084       29.27782       -0.70336
N         26.62304       29.94488       -1.03144
O         24.40192       29.77605       -0.94442
H         25.88429       25.94548        1.48348
H         23.79620       28.04544        1.15435
H         25.07896       27.18456       -0.74889
H         26.63343       27.61562        0.03550
H         27.55131       29.53515       -0.84896
H         26.57516       30.87216       -1.47805
N         24.92823       29.91292        2.82783
C         23.60152       30.41834        2.49269
C         23.36998       31.75170        3.19009
O         24.21708       32.62181        3.04104
H         25.50096       30.46827        3.48482
H         22.81516       29.68476        2.76135
H         23.55911       30.60262        1.40001
N         22.27552       31.98352        3.98217
C         22.10201       33.22871        4.74990
C         20.87088       33.18273        5.66607
O         19.98976       32.36333        5.45417
C         21.97636       34.45828        3.80528
C         22.09248       35.77592        4.53230
C         21.01394       36.67413        4.57650
C         23.30010       36.12187        5.16386
C         21.14069       37.89492        5.24803
C         23.42555       37.34279        5.83069
C         22.34473       38.23414        5.87579
O         22.45192       39.41542        6.51680
H         21.58682       31.22318        4.07816
H         23.00440       33.31335        5.39506
H         21.00837       34.37936        3.26244
H         22.76905       34.47423        3.03426
H         20.07505       36.42945        4.09649
H         24.14719       35.44769        5.13475
H         20.30192       38.57845        5.28059
H         24.36347       37.59461        6.30982
H         23.26815       39.68716        6.96076
N         20.74509       34.05545        6.71140
C         19.58083       34.08267        7.59988
C         18.30387       34.43686        6.85560
O         18.25378       35.45939        6.18693
C         19.75163       35.04882        8.82397
C         20.82190       34.57325        9.83703
C         20.04386       36.51321        8.43234
C         20.49794       33.22066       10.48119
H         21.52487       34.69944        6.89751
H         19.43893       33.06990        8.01767
H         18.78376       35.05405        9.37707
H         20.86032       35.31175       10.66867
H         21.82539       34.53350        9.36349
H         21.02121       36.61195        7.92132
H         19.25282       36.93866        7.78665
H         20.07625       37.14770        9.34379
H         19.49157       33.24716       10.95331
H         20.53593       32.39524        9.74561
H         21.24830       32.99564       11.26696
N         17.20424       33.63749        6.98162
C         15.89802       33.97451        6.41913
C         14.89140       32.83591        6.57553
O         15.18654       31.82221        7.19081
C         15.34246       35.24612        7.10435
O         15.19233       35.01757        8.48024
H         17.30274       32.77362        7.53041
H         16.02012       34.15075        5.32792
H         14.36047       35.52493        6.66557
H         16.02979       36.10322        6.94606
H         14.86539       35.86955        8.87053
N         13.65538       32.95774        6.01756
C         12.60645       31.94887        6.07009
C         12.17981       31.63312        7.49515
O         12.01784       30.46600        7.82761
C         13.01837       30.69143        5.28492
H         13.43144       33.82499        5.50670
H         11.71691       32.38003        5.55986
H         13.88836       30.19109        5.75844
H         12.17903       29.96502        5.24670
H         13.29137       30.96542        4.24430
N         11.96075       32.63980        8.39440
C         11.42126       32.43471        9.73811
C         12.24144       31.49345       10.62135
O         11.75457       31.15710       11.69283
C          9.97019       31.94057        9.62503
H         12.14587       33.61166        8.10308
H         11.36907       33.41761       10.25738
H          9.50363       31.87522       10.63141
H          9.37651       32.66287        9.02458
H          9.91105       30.94242        9.14572
N         13.47637       31.02489       10.26656
C         14.19895       30.03506       11.06167
C         14.39888       30.50749       12.49063
O         14.01344       29.79295       13.40611
C         15.52564       29.60375       10.38442
C         16.63588       30.66465       10.36193
C         17.84901       30.14782        9.65208
O         18.29102       30.74677        8.68892
O         18.46917       29.03344       10.08532
H         13.91021       31.35382        9.39539
H         13.57754       29.11040       11.08603
H         15.29454       29.28683        9.34248
H         15.91728       28.71413       10.92619
H         16.94908       30.90537       11.39767
H         16.27576       31.58958        9.86196
N         14.95041       31.72271       12.75821
C         15.13416       32.20042       14.10953
H         15.58370       33.21564       14.09238
H         14.15351       32.25293       14.62851
H         15.81300       31.51732       14.66264
H         15.23128       32.34049       11.98262
Ca        19.53843       29.80367        6.39923
O         22.44364       29.70553        6.04375
H         23.34896       30.08141        5.90777
H         22.36848       28.98376        5.37073
O         21.41281       29.82590        8.88474
H         21.05550       29.93086        9.80170
H         22.37905       30.02262        8.97138
O         19.32776       29.03715        3.48349
H         19.44132       28.06575        3.63812
H         18.36021       29.19845        3.61996
O         16.54803       29.45811        5.96525
H         16.95228       30.35756        6.05445
H         16.27685       29.21511        6.88602

Ca 1.0



