%chk=apoCaM-CA-Ng.loop3.water2.frame543.chk
%nprocshared=20
%mem=10GB
%nosave
#b3lyp/svp scf=(tight,noincore,xqc) Test 
#IOP(5/87=12) Density=Current Pop=(MK,readradii) iop(6/33=2) iop(6/42=6)

apoCaM-CA-Ng.loop3.water2.frame543 

   0  1 
C         58.76188        9.29311       70.17919
C         57.36757        9.10073       70.69193
O         56.82955       10.00395       71.31738
H         59.42858        8.52090       70.61584
H         58.76582        9.19884       69.07287
H         59.14705       10.29852       70.45332
N         56.70722        7.93568       70.44418
C         55.34073        7.70277       70.88974
C         55.29359        7.68370       72.40826
O         55.92995        6.83606       73.01944
C         54.80452        6.38289       70.29403
C         53.32463        6.17791       70.48396
O         52.79963        5.16988       70.03975
O         52.56178        7.09959       71.10328
H         57.18806        7.20951       69.88999
H         54.71272        8.52625       70.48586
H         55.36307        5.52313       70.72425
H         54.98080        6.39554       69.20000
N         54.57065        8.61916       73.08041
C         54.49408        8.68831       74.53644
C         53.86222        7.43415       75.11111
O         54.35942        6.91551       76.10061
C         53.67137        9.92834       74.95243
C         53.66382       10.15183       76.47808
C         52.86806       11.39334       76.91749
C         53.48496       12.71964       76.43932
N         52.73154       13.85963       76.96114
H         54.06046        9.32615       72.52721
H         55.51782        8.82460       74.95255
H         52.62848        9.81576       74.58625
H         54.13264       10.81238       74.46509
H         54.70760       10.24150       76.85142
H         53.19649        9.27044       76.96698
H         52.85752       11.40449       78.02951
H         51.81766       11.31072       76.56333
H         53.48991       12.77377       75.33061
H         54.53626       12.78598       76.79756
H         53.19046       14.74475       76.64855
H         51.74973       13.83729       76.60069
H         52.72524       13.84175       78.00684
N         52.74930        6.90430       74.53361
C         51.98176        5.80076       75.09902
C         52.18344        4.47558       74.34444
O         51.62361        3.48048       74.78388
C         50.49711        6.25021       75.20721
C         49.93679        6.63290       73.86274
O         49.95981        5.70147       72.90973
O         49.55029        7.76503       73.62131
H         52.41557        7.32460       73.65492
H         52.33354        5.58483       76.13162
H         50.43513        7.12758       75.88694
H         49.88492        5.43086       75.64157
N         53.01512        4.35762       73.26224
C         53.36672        3.07786       72.64006
C         52.23283        2.30295       71.97815
O         52.48245        1.18394       71.55354
H         53.50606        5.19132       72.91747
H         53.80913        2.43038       73.42828
H         54.15103        3.24749       71.87044
N         50.97348        2.80571       71.87214
C         49.81358        2.06351       71.38399
C         49.13042        2.78607       70.17745
O         50.02336        3.60589       69.48426
C         48.84797        1.97193       72.59055
C         47.54807        1.25750       72.34439
N         46.37097        1.91350       72.48565
O         47.55291        0.07520       72.03675
H         50.81209        3.74758       72.21166
H         50.12151        1.04316       71.06426
H         48.62896        3.00896       72.93022
H         49.36847        1.45508       73.42671
H         46.34769        2.90908       72.75400
H         45.47620        1.42757       72.32967
N         48.50747        1.82475       69.25226
C         47.61119        2.44350       68.26435
C         48.36507        3.21057       67.20414
O         49.29098        2.66389       66.62081
H         47.92149        1.15621       69.79596
H         46.83957        3.07071       68.76565
H         47.07760        1.62275       67.73721
N         47.98579        4.47548       66.86581
C         48.67120        5.26452       65.84183
C         50.06333        5.67857       66.30580
O         50.44278        5.39045       67.42966
C         47.80326        6.48371       65.44951
C         46.58015        6.05117       64.67324
C         45.29401        6.14809       65.22897
C         46.72485        5.55448       63.36481
C         44.17437        5.74691       64.49029
C         45.60477        5.16675       62.62492
C         44.32427        5.25970       63.18675
O         43.23450        4.88803       62.48463
H         47.15339        4.87319       67.32843
H         48.80925        4.63795       64.93254
H         48.35790        7.19878       64.80584
H         47.51112        7.02589       66.37021
H         45.15744        6.52342       66.23497
H         47.70592        5.48113       62.91150
H         43.18787        5.81748       64.93059
H         45.73387        4.79652       61.61516
H         43.29536        4.55464       61.57769
N         50.90344        6.30532       65.43153
C         52.31944        6.59302       65.66073
C         52.58158        7.60799       66.77315
O         52.28136        7.33774       67.92600
C         53.13455        5.28346       65.93841
C         54.66338        5.53921       66.08399
C         52.86703        4.20155       64.87660
C         55.36254        6.08170       64.83313
H         50.54413        6.51653       64.48819
H         52.70374        7.01505       64.70801
H         52.80248        4.85997       66.91092
H         55.15959        4.58595       66.36924
H         54.84314        6.25599       66.90970
H         53.14623        4.55121       63.86227
H         53.44457        3.28285       65.11700
H         51.79353        3.92111       64.86264
H         54.94890        7.06397       64.53092
H         56.44138        6.22449       65.05351
H         55.28090        5.36879       63.98817
N         53.29540        8.73878       66.49686
C         53.93851        9.54867       67.53425
C         52.99925       10.29911       68.47409
O         53.48507       10.80736       69.47580
C         54.92775       10.54064       66.89218
O         55.90146        9.85142       66.14823
H         53.53185        8.92949       65.51151
H         54.53671        8.84798       68.15598
H         55.45451       11.12736       67.67389
H         54.37882       11.27248       66.25252
H         55.64110        9.90456       65.19109
N         51.67337       10.46231       68.21671
C         50.78234       11.20125       69.11407
C         50.49699       10.38386       70.37336
O         50.16324        9.21816       70.22825
C         49.47154       11.51631       68.38676
H         51.29430       10.09385       67.33157
H         51.23154       12.18918       69.35059
H         48.80219       12.11860       69.03252
H         49.69155       12.11433       67.47604
H         48.93890       10.59518       68.08675
N         50.56643       10.87499       71.64810
C         50.85793       12.25642       72.01022
C         49.77935       13.18992       71.47010
O         48.61838       12.80756       71.52352
C         50.88682       12.41614       73.53563
H         50.36564       10.21264       72.41530
H         51.87108       12.48327       71.63380
H         51.65954       11.75806       73.96993
H         51.13753       13.46379       73.80881
H         49.90340       12.15585       73.98403
N         50.02729       14.43527       70.96455
C         51.31795       15.10927       70.97667
C         51.77673       15.35084       69.55338
O         52.83993       14.87131       69.18491
C         51.19256       16.42585       71.77729
C         52.55305       17.00858       72.19446
C         53.20873       16.13923       73.23512
O         52.58521       15.91698       74.40849
O         54.30014       15.63504       73.02759
H         49.22258       14.96617       70.59525
H         52.07418       14.50177       71.49471
H         50.61181       16.24406       72.70883
H         50.62119       17.17103       71.18428
H         52.39300       18.00616       72.65531
H         53.20783       17.13459       71.30536
N         51.00407       16.07213       68.69012
C         51.36005       16.32359       67.30900
H         52.33520       15.87204       67.03212
H         50.57585       15.89869       66.64722
H         51.41589       17.41901       67.13854
H         50.10678       16.46007       69.01604
Ca        49.74651        5.51248       70.68769
O         46.95787        6.57215       70.50474
H         46.97732        5.95312       71.27718
H         46.41581        6.10238       69.82259
O         48.95627        7.88257       68.21330
H         49.24908        8.36460       67.39875
H         48.11015        8.32408       68.47661

Ca 1.0



