%chk=apoCaM-CA-Ng.loop4.water4.frame144.chk
%nprocshared=20
%mem=10GB
%nosave
#b3lyp/svp scf=(tight,noincore,xqc) Test 
#IOP(5/87=12) Density=Current Pop=(MK,readradii) iop(6/33=2) iop(6/42=6)

apoCaM-CA-Ng.loop4.water4.frame144 

   -3  1 
C         50.60114       40.86148       13.90288
C         50.44857       39.86458       15.00932
O         49.41854       39.22393       15.06631
H         51.47352       40.58529       13.27460
H         49.69442       40.86598       13.25716
H         50.74584       41.87535       14.32541
N         51.45650       39.65357       15.90266
C         51.43704       38.63967       16.95545
C         51.25444       37.23844       16.40072
O         50.32663       36.55301       16.78231
C         50.59435       39.01648       18.21594
C         49.20411       39.63385       18.16331
O         48.10147       39.03037       17.67226
O         49.05222       40.72614       18.68818
H         52.32506       40.19659       15.78432
H         52.46586       38.58412       17.38095
H         51.21269       39.77973       18.74218
H         50.56976       38.13591       18.89442
N         52.18970       36.74936       15.52981
C         52.28492       35.39911       14.96212
C         52.66392       34.35289       16.01285
O         53.76284       33.82249       15.91767
C         51.05640       34.99569       14.10042
C         51.25497       33.62321       13.38944
C         50.72792       36.08820       13.06728
C         52.45160       33.53956       12.42914
H         52.93852       37.40010       15.24463
H         53.14909       35.44728       14.26344
H         50.17088       34.89486       14.76200
H         50.33661       33.39281       12.80923
H         51.37569       32.82302       14.14954
H         49.85667       35.78431       12.45225
H         50.46463       37.03816       13.57535
H         51.58836       36.28411       12.39516
H         52.47850       32.53296       11.96163
H         52.37345       34.28939       11.61627
H         53.41364       33.67556       12.96289
N         51.83944       34.00511       17.04323
C         52.22608       33.05053       18.07247
C         52.32026       31.63302       17.50637
O         53.40730       31.07914       17.59133
C         51.32514       33.17765       19.32478
C         51.50371       34.52935       19.97337
O         52.71602       34.90987       20.42099
O         50.55496       35.28300       20.10867
H         50.91759       34.43685       17.12971
H         53.24220       33.32523       18.44104
H         51.61900       32.41042       20.07251
H         50.25656       33.03990       19.08234
N         51.29966       30.95111       16.89821
C         49.94672       31.45842       16.70987
C         49.02385       30.48204       15.97766
O         49.49299       29.43623       15.55236
H         51.52729       30.00598       16.55528
H         49.99464       32.39657       16.12677
H         49.52989       31.63160       17.70090
N         47.69037       30.71872       15.75213
C         46.90718       31.87527       16.17993
C         47.50532       33.14346       15.59000
O         48.03015       33.95845       16.33496
C         46.68508       31.86640       17.71539
C         45.61846       32.83374       18.15657
O         45.88276       33.74684       19.10766
O         44.48943       32.75755       17.69813
H         47.17347       30.00513       15.21373
H         45.87889       31.75148       15.78304
H         47.60115       32.07456       18.28805
H         46.32715       30.85286       17.99869
N         47.49776       33.38790       14.24462
C         46.70576       32.63839       13.28813
C         47.43911       31.48001       12.68470
O         48.65261       31.38241       12.79957
H         47.95617       34.23363       13.89616
H         46.40004       33.30180       12.45122
H         45.74525       32.32494       13.73919
N         46.72173       30.53540       12.02072
C         47.33672       29.38267       11.37687
C         48.05820       29.75861       10.09083
O         48.76605       28.91215        9.56107
C         46.28718       28.27860       11.12312
C         45.18009       28.67270       10.12381
C         44.12263       27.60285       10.06071
N         43.82661       26.98079        8.89758
O         43.51210       27.30370       11.07641
H         45.69624       30.62491       12.03793
H         48.07404       28.95657       12.09480
H         45.82723       28.03477       12.10666
H         46.79603       27.36189       10.75135
H         45.62902       28.84423        9.12234
H         44.67239       29.60772       10.43182
H         44.31944       27.22140        8.02784
H         43.09299       26.25776        8.86615
N         47.90596       30.98837        9.51166
C         48.58165       31.39063        8.28382
C         47.60837       31.64127        7.13525
O         48.09035       31.96480        6.06049
C         49.50748       32.61544        8.53510
C         50.63704       32.24614        9.50616
C         48.75347       33.85504        9.04574
H         47.27136       31.67380        9.94457
H         49.23909       30.57040        7.91707
H         49.99072       32.88511        7.56932
H         51.21749       31.38582        9.10811
H         51.33451       33.10191        9.62187
H         50.23401       31.97275       10.50365
H         49.45686       34.70938        9.14445
H         47.95507       34.14759        8.33236
H         48.30165       33.67461       10.04313
N         46.25499       31.44266        7.24666
C         45.36353       31.52440        6.08632
C         44.21292       32.50587        6.25336
O         43.47736       32.65696        5.28264
C         44.79878       30.12023        5.78557
C         45.89189       29.10180        5.56328
N         46.78524       29.24322        4.55666
O         45.96959       28.13310        6.30271
H         45.84940       31.13441        8.13964
H         45.92516       31.86420        5.19075
H         44.16386       30.15449        4.87278
H         44.15982       29.79619        6.63778
H         46.74079       30.04813        3.91597
H         47.52754       28.54143        4.41770
N         43.97346       33.21694        7.39459
C         42.84253       34.14724        7.50600
C         42.88491       35.01008        8.75473
O         43.53035       34.63241        9.72240
C         41.48073       33.40778        7.38871
C         41.35371       32.19098        8.29191
C         41.26270       30.90974        7.71350
C         41.31025       32.30212        9.69385
C         41.13265       29.77162        8.51338
C         41.17727       31.15994       10.49328
C         41.08563       29.89337        9.90735
O         40.94694       28.80425       10.69021
H         44.62147       33.11266        8.19072
H         42.93488       34.87379        6.66728
H         41.36971       33.07147        6.33916
H         40.63489       34.10644        7.56506
H         41.29355       30.78648        6.63820
H         41.36685       33.26507       10.17655
H         41.06421       28.79630        8.04729
H         41.13917       31.25948       11.57102
H         40.86907       27.91227       10.32143
N         42.18773       36.19368        8.77492
C         42.13760       37.18459        9.85668
C         43.41291       38.01798       10.00103
O         43.30631       39.23770        9.98454
C         41.66493       36.58524       11.19725
C         40.21299       36.08884       11.09049
C         39.71307       35.56479       12.40418
O         38.66497       36.15589       13.01027
O         40.24313       34.59583       12.92331
H         41.62074       36.41853        7.94162
H         41.36126       37.93728        9.58473
H         41.68524       37.38837       11.96812
H         42.34252       35.77654       11.53983
H         40.12574       35.29233       10.32339
H         39.56585       36.93986       10.78078
N         44.63976       37.45854       10.17003
C         45.86135       38.21758       10.42857
C         46.26684       39.13236        9.27529
O         47.21205       39.88943        9.45424
C         47.02904       37.24355       10.74845
C         46.73862       36.25434       11.90296
C         46.64897       36.89621       13.25484
O         47.41472       36.40811       14.24241
O         45.85895       37.79591       13.48453
H         44.70884       36.44818       10.15559
H         45.67857       38.86431       11.31120
H         47.95831       37.80972       10.98230
H         47.22157       36.63955        9.83401
H         47.56384       35.51368       11.92789
H         45.81700       35.67067       11.73358
N         45.62271       39.13501        8.07225
C         46.00454       40.03330        7.00339
H         47.05859       39.84833        6.70684
H         45.35123       39.87148        6.11963
H         45.89223       41.08763        7.33627
H         44.84263       38.48975        7.88974
Ca        47.92700       37.43031       16.13792
O         45.26180       37.59557       18.78228
H         44.94015       36.74071       19.16500
H         45.97997       37.88827       19.39792
O         45.63037       39.55591       16.06921
H         46.36017       39.66527       15.40860
H         44.84267       39.29357       15.53018
O         44.94939       35.94850       16.14734
H         44.07975       35.76612       15.71124
H         45.37817       35.06020       16.22379
O         48.06903       35.83139       18.84937
H         48.11069       34.98343       19.35853
H         47.26002       35.74423       18.28708

Ca 1.0



