%chk=apoCaM-CA-Ng.loop1.water3.frame995.chk
%nprocshared=20
%mem=10GB
%nosave
#b3lyp/svp scf=(tight,noincore,xqc) Test 
#IOP(5/87=12) Density=Current Pop=(MK,readradii) iop(6/33=2) iop(6/42=6)

apoCaM-CA-Ng.loop1.water3.frame995 

   0  1 
C         79.11003       62.13584       56.59186
C         77.63745       61.98842       56.86048
O         77.02186       61.09716       56.29423
H         79.63010       61.19611       56.87910
H         79.28781       62.33348       55.51549
H         79.55238       62.96400       57.18574
N         77.01872       62.80338       57.76068
C         75.63153       62.64519       58.18878
C         74.83910       63.94084       58.04609
O         75.18538       64.93656       58.65983
C         75.60189       62.05373       59.62480
C         76.79427       62.39583       60.50934
O         77.59994       61.50967       60.75054
O         77.03152       63.61680       61.03700
H         77.58429       63.52423       58.23508
H         75.10987       61.89516       57.55254
H         75.68452       60.95268       59.46860
H         74.62138       62.21259       60.12222
N         73.74354       63.98428       57.22550
C         72.90328       65.16635       57.03802
C         72.09193       65.48963       58.28675
O         71.35928       64.63509       58.76579
C         71.89950       64.94667       55.87861
C         71.06896       66.21888       55.60000
C         70.01016       65.98932       54.51966
C         69.20601       67.27498       54.27577
N         68.15489       67.05826       53.28340
H         73.50783       63.13987       56.68146
H         73.55125       66.02071       56.73815
H         71.21955       64.10346       56.13346
H         72.45532       64.67822       54.95365
H         71.75313       67.04001       55.29105
H         70.53376       66.53627       56.52061
H         69.31948       65.18575       54.85788
H         70.49879       65.67107       53.57367
H         69.89296       68.07384       53.91868
H         68.73927       67.61469       55.22825
H         67.63450       67.95321       53.13569
H         68.57384       66.75393       52.37501
H         67.48485       66.33160       53.62586
N         72.08411       66.76010       58.77703
C         71.17672       67.22844       59.83568
C         71.28421       68.74030       60.03632
O         72.26759       69.32855       59.60775
C         71.38541       66.47983       61.17991
C         72.77522       65.94701       61.36769
O         72.92670       64.74660       61.53571
O         73.86557       66.72596       61.27273
H         72.70225       67.43903       58.30922
H         70.13970       67.05212       59.48836
H         70.70751       65.59889       61.19750
H         71.10963       67.11362       62.04613
N         70.32996       69.48006       60.68322
C         69.05244       69.01696       61.22060
C         68.00389       68.68211       60.17478
O         68.28602       68.67855       58.98555
H         70.53344       70.48206       60.82154
H         68.61841       69.85994       61.80130
H         69.18736       68.17439       61.92455
N         66.72732       68.41528       60.58728
C         65.61546       68.10571       59.68359
C         65.21049       69.27898       58.79295
O         64.38541       69.06689       57.91383
C         64.36044       67.68733       60.49316
C         64.54729       66.45987       61.34683
O         63.52335       66.02714       62.10674
O         65.60310       65.84649       61.35869
H         66.54680       68.41541       61.60335
H         65.92133       67.25664       59.03266
H         63.51769       67.47591       59.79888
H         64.06010       68.53250       61.15237
N         65.70221       70.53903       58.97007
C         65.30573       71.67689       58.15330
C         66.47610       72.29237       57.42043
O         66.27748       73.31764       56.78535
H         66.36980       70.72731       59.73110
H         64.86629       72.44396       58.82680
H         64.53403       71.40627       57.40070
N         67.72072       71.73208       57.45538
C         68.88900       72.31501       56.81129
C         69.93750       72.62163       57.86282
O         69.84101       72.13187       58.97756
C         69.45991       71.32004       55.76835
C         68.44898       71.00837       54.66431
O         70.62000       71.84696       55.17474
H         67.86869       70.85512       57.96619
H         68.61859       73.27095       56.31192
H         69.69961       70.36709       56.30381
H         71.28237       71.10923       55.11182
H         68.17958       71.93666       54.11786
H         68.89451       70.29212       53.94337
H         67.52982       70.55037       55.08589
N         70.98837       73.43149       57.55956
C         72.08078       73.69645       58.49314
C         71.57458       74.38143       59.76221
O         72.17245       74.18746       60.81188
C         73.22836       74.50915       57.81094
C         73.70714       73.89128       56.46080
C         74.43118       74.68621       58.75662
C         74.14234       72.42501       56.53528
H         71.00410       73.85368       56.62319
H         72.49582       72.70768       58.79067
H         72.84524       75.52690       57.57295
H         74.54807       74.49975       56.06354
H         72.90781       73.95747       55.69650
H         74.14310       75.24437       59.66977
H         74.85001       73.70474       59.06069
H         75.22673       75.27767       58.25602
H         74.98950       72.29006       57.23589
H         73.29597       71.77714       56.84534
H         74.46470       72.09013       55.52682
N         70.44514       75.14563       59.74858
C         69.86028       75.76460       60.93705
C         69.73929       77.27158       60.75117
O         70.13393       77.78719       59.71296
C         68.50186       75.07928       61.27544
C         67.49973       75.04843       60.11365
O         68.71351       73.77595       61.75844
H         69.95467       75.28461       58.85275
H         70.51444       75.62308       61.82549
H         68.02399       75.63179       62.10832
H         69.21605       73.26952       61.07351
H         66.55257       74.58006       60.45512
H         67.28355       76.07574       59.75512
H         67.88603       74.43881       59.27034
N         69.21652       78.04483       61.74818
C         69.13520       79.49778       61.69247
C         69.85832       80.07612       62.90282
O         70.84469       80.77528       62.71981
C         67.65199       79.94527       61.57223
C         67.50843       81.47029       61.50292
O         66.88360       79.44672       62.63656
H         68.86802       77.58660       62.60231
H         69.64571       79.87617       60.77761
H         67.26992       79.51441       60.61600
H         65.94184       79.40599       62.32430
H         68.08443       81.87451       60.64399
H         66.43945       81.74069       61.36556
H         67.86994       81.94419       62.44014
N         69.40557       79.83964       64.16917
C         70.01218       80.39239       65.37239
C         70.22489       79.30363       66.40672
O         69.33338       78.49392       66.62500
C         69.09542       81.49033       65.93367
C         69.69048       82.14212       67.19920
C         68.93633       83.40054       67.64328
C         67.46795       83.14017       68.00506
N         66.82170       84.37629       68.44247
H         68.54991       79.28338       64.29652
H         70.98118       80.88958       65.14282
H         68.09088       81.06969       66.15187
H         68.99242       82.26971       65.14662
H         70.73735       82.45282       66.98694
H         69.71143       81.40639       68.03295
H         68.98924       84.15722       66.83063
H         69.45800       83.81280       68.53499
H         67.41244       82.38409       68.81933
H         66.92095       82.74965       67.12061
H         65.82125       84.17777       68.67089
H         67.29890       84.74967       69.29492
H         66.85891       85.08900       67.67732
N         71.35480       79.30226       67.16617
C         71.58303       78.34660       68.24116
C         71.70142       76.92849       67.69520
O         70.92960       76.09138       68.14092
C         72.79502       78.76740       69.10607
C         72.95633       77.88678       70.35548
C         74.06246       78.40007       71.23303
O         73.79459       78.79775       72.49196
O         75.20725       78.45803       70.81318
H         72.04652       80.05252       67.01409
H         70.70674       78.39559       68.92954
H         72.61407       79.81100       69.44982
H         73.73753       78.75924       68.52422
H         73.18140       76.83927       70.06264
H         72.00806       77.89529       70.93691
N         72.59349       76.53835       66.73496
C         73.54274       77.38871       66.04321
H         74.57018       77.00511       66.20749
H         73.32079       77.36660       64.95541
H         73.51879       78.44114       66.35988
H         72.58296       75.54843       66.44419
Ca        75.66260       65.37908       61.29878
O         76.62725       68.07563       59.63878
H         75.85872       68.69751       59.58238
H         76.85103       67.87080       58.69619
O         76.78195       67.75210       62.99112
H         77.49005       68.03036       63.62468
H         76.01479       68.34262       63.19892
O         76.00077       64.84095       64.20227
H         76.92034       64.72787       64.55113
H         75.65071       63.91863       64.11696

Ca 1.0



