%chk=apoCaM-CA-Ng.loop3.water2.frame869.chk
%nprocshared=20
%mem=10GB
%nosave
#b3lyp/svp scf=(tight,noincore,xqc) Test 
#IOP(5/87=12) Density=Current Pop=(MK,readradii) iop(6/33=2) iop(6/42=6)

apoCaM-CA-Ng.loop3.water2.frame869 

   0  1 
C         63.87412       53.58474       -1.45361
C         64.35917       55.00204       -1.49329
O         64.75878       55.45271       -2.55787
H         63.02624       53.47161       -2.16299
H         64.69352       52.90052       -1.75522
H         63.52258       53.30397       -0.43928
N         64.32517       55.78565       -0.37649
C         64.69810       57.19664       -0.41950
C         66.19084       57.34802       -0.71466
O         66.92571       56.39064       -0.51079
C         64.30243       57.90446        0.90538
C         63.82264       59.32316        0.72064
O         62.61821       59.68093        1.19953
O         64.49167       60.15500        0.14129
H         63.95720       55.38066        0.49779
H         64.09655       57.63024       -1.22654
H         65.13608       57.83633        1.63803
H         63.43144       57.38448        1.36020
N         66.71347       58.52036       -1.17797
C         68.14826       58.74249       -1.37419
C         68.67218       59.82838       -0.42295
O         69.87571       60.03056       -0.35747
C         68.38827       59.06912       -2.86528
C         69.86918       59.11853       -3.27708
C         70.00365       59.32829       -4.79247
C         71.47439       59.31018       -5.23116
N         71.59036       59.48712       -6.67890
H         66.07006       59.28924       -1.40838
H         68.70544       57.81256       -1.12863
H         67.88788       60.02874       -3.12421
H         67.90836       58.25923       -3.45890
H         70.34844       58.15305       -3.00349
H         70.39397       59.94455       -2.75474
H         69.54477       60.30166       -5.07413
H         69.46466       58.51339       -5.32401
H         71.93246       58.33648       -4.94676
H         72.03011       60.12412       -4.71482
H         72.60024       59.45797       -6.94848
H         71.08696       58.71729       -7.17733
H         71.19029       60.41091       -6.96239
N         67.81929       60.55421        0.35644
C         68.19952       61.57998        1.31373
C         67.65763       61.21782        2.69955
O         68.45874       61.16504        3.62266
C         67.79423       62.97621        0.77804
C         66.39558       63.09811        0.23229
O         66.22521       63.31460       -0.95733
O         65.32817       62.98716        1.03175
H         66.81722       60.40193        0.26605
H         69.30748       61.63925        1.41492
H         68.47891       63.18784       -0.07409
H         67.98064       63.75409        1.54923
N         66.34698       60.88005        2.91650
C         65.83810       60.42400        4.20693
C         64.65129       61.21289        4.73220
O         64.25074       60.93822        5.85450
H         65.69549       60.86641        2.12896
H         66.63549       60.46969        4.97853
H         65.52543       59.36152        4.11457
N         64.03348       62.19269        4.00920
C         62.95817       63.02977        4.53335
C         61.66808       62.86550        3.73865
O         61.64559       62.14586        2.75227
C         63.41944       64.50357        4.47520
C         64.69017       64.73190        5.25332
N         64.72761       64.53576        6.59138
O         65.69561       65.10603        4.66795
H         64.34755       62.39152        3.05767
H         62.72748       62.75710        5.58582
H         62.64178       65.18398        4.87950
H         63.59021       64.77765        3.40925
H         63.88767       64.23086        7.10380
H         65.59862       64.69676        7.11834
N         60.55346       63.54314        4.14952
C         59.23130       63.59727        3.53284
C         58.99579       62.76523        2.28862
O         58.99647       61.54501        2.37411
H         60.64077       64.11903        5.00024
H         59.03137       64.66483        3.29941
H         58.47577       63.28521        4.28582
N         58.70285       63.38188        1.10498
C         58.30583       62.67193       -0.11466
C         59.37231       61.70810       -0.61009
O         60.45162       61.66113       -0.03969
C         57.90051       63.69242       -1.20437
C         56.68291       64.47879       -0.76476
C         55.44799       63.82490       -0.60445
C         56.76441       65.85708       -0.50123
C         54.31921       64.53188       -0.18312
C         55.63321       66.56208       -0.07209
C         54.40667       65.89990        0.08887
O         53.30905       66.56412        0.50436
H         58.70809       64.41332        1.09036
H         57.42196       62.04391        0.13227
H         57.65072       63.19018       -2.16251
H         58.76742       64.36448       -1.39256
H         55.35784       62.76521       -0.80785
H         57.70364       66.38395       -0.61276
H         53.37584       64.01334       -0.06456
H         55.71115       67.62135        0.13840
H         53.32518       67.50929        0.71139
N         59.07063       60.82683       -1.61716
C         59.88506       59.66736       -1.99269
C         61.23158       60.05649       -2.60589
O         62.00083       60.76734       -1.97676
C         60.02525       58.70707       -0.76573
C         60.91699       57.46954       -1.03349
C         58.64163       58.28016       -0.23711
C         60.40897       56.49867       -2.09938
H         58.14608       60.90191       -2.06798
H         59.32387       59.09877       -2.76580
H         60.51970       59.25372        0.05537
H         61.03812       56.90455       -0.08288
H         61.91824       57.82167       -1.33565
H         58.75388       57.62513        0.65271
H         58.04637       59.16411        0.07426
H         58.06497       57.73823       -1.01504
H         60.31190       56.99470       -3.08296
H         61.13866       55.66793       -2.20427
H         59.43250       56.06244       -1.80867
N         61.61196       59.52874       -3.81273
C         62.92937       59.74764       -4.41272
C         62.89089       60.12280       -5.88995
O         63.95818       60.38574       -6.43018
C         63.75006       58.45596       -4.28775
O         63.12697       57.41230       -4.98795
H         60.98064       58.85581       -4.26915
H         63.46780       60.55117       -3.86296
H         63.81724       58.19374       -3.22311
H         64.77929       58.61607       -4.68169
H         63.69821       56.61161       -4.85963
N         61.74837       60.09248       -6.63844
C         61.77358       60.29443       -8.08663
C         62.21690       61.70063       -8.44328
O         62.04190       62.58714       -7.61823
C         60.39375       60.02474       -8.68382
H         60.85212       59.85038       -6.19502
H         62.48894       59.55420       -8.50582
H         60.41454       60.17797       -9.77707
H         60.09209       58.97598       -8.47338
H         59.63954       60.71343       -8.24887
N         62.85821       62.01561       -9.60894
C         63.24573       61.08679      -10.67324
C         63.10752       61.76896      -12.03272
O         63.54829       62.90585      -12.13847
C         64.71406       60.71193      -10.46571
H         63.20016       62.98685       -9.68824
H         62.68204       60.13919      -10.63147
H         65.04301       60.00540      -11.25808
H         65.36417       61.61233      -10.48876
H         64.83694       60.21061       -9.48153
N         62.60389       61.17845      -13.15862
C         62.15634       59.79586      -13.29488
C         60.88529       59.54725      -12.51453
O         60.86788       58.64168      -11.69263
C         61.94024       59.47479      -14.79609
C         61.58153       58.00324      -15.05394
C         61.45815       57.73381      -16.52730
O         62.27188       56.83892      -17.11993
O         60.61882       58.31892      -17.19358
H         62.61824       61.75470      -14.01649
H         62.96745       59.12103      -12.93876
H         62.88982       59.69294      -15.33500
H         61.14821       60.13218      -15.21839
H         60.61906       57.74670      -14.56250
H         62.37969       57.35394      -14.63305
N         59.77526       60.30542      -12.73888
C         58.52105       60.11417      -12.03909
H         57.71920       59.89746      -12.77509
H         58.56334       59.27599      -11.31220
H         58.26390       61.04288      -11.48813
H         59.81637       61.06328      -13.43665
Ca        63.24766       63.00708        0.15397
O         61.84210       65.65523        0.65488
H         62.76966       65.64309        1.00208
H         61.94434       65.57545       -0.32703
O         62.17773       63.72397       -2.78340
H         62.99726       64.27707       -2.72715
H         62.33443       63.12646       -3.55746

Ca 1.0



