%chk=apoCaM-CA-Ng.loop3.water3.frame902.chk
%nprocshared=20
%mem=10GB
%nosave
#b3lyp/svp scf=(tight,noincore,xqc) Test 
#IOP(5/87=12) Density=Current Pop=(MK,readradii) iop(6/33=2) iop(6/42=6)

apoCaM-CA-Ng.loop3.water3.frame902 

   0  1 
C         97.34808       -5.61030       32.42288
C         97.45070       -7.05686       32.05005
O         97.99163       -7.83562       32.82163
H         96.27605       -5.32648       32.48775
H         97.82399       -5.42398       33.40928
H         97.84808       -4.98676       31.65391
N         96.91992       -7.49604       30.87485
C         96.90442       -8.91069       30.50382
C         98.32335       -9.43120       30.30459
O         99.23652       -8.62418       30.19085
C         96.04451       -9.11405       29.22062
C         95.14973      -10.32303       29.28048
O         93.93963      -10.15466       29.28363
O         95.61704      -11.57683       29.39804
H         96.46128       -6.79874       30.26856
H         96.42323       -9.43526       31.35048
H         96.66959       -9.08299       28.30355
H         95.32869       -8.26669       29.13685
N         98.58068      -10.76738       30.23327
C         99.90611      -11.31529       29.94314
C         99.91383      -12.02486       28.58444
O        100.98680      -12.28049       28.05671
C        100.33378      -12.20956       31.12294
C        101.77427      -12.73593       31.03569
C        102.20008      -13.48738       32.31352
C        101.37464      -14.74645       32.64657
N        101.47012      -15.76644       31.60156
H         97.80517      -11.42285       30.39408
H        100.63624      -10.48161       29.85556
H         99.62294      -13.05585       31.20374
H        100.25440      -11.59639       32.04806
H        102.45944      -11.86839       30.91692
H        101.90021      -13.39190       30.15130
H        102.12776      -12.78872       33.17600
H        103.26704      -13.78113       32.20992
H        100.30912      -14.48580       32.82332
H        101.76713      -15.17086       33.59733
H        100.95195      -16.61965       31.91256
H        101.03679      -15.42677       30.71390
H        102.47122      -16.02148       31.43825
N         98.74924      -12.32943       27.94289
C         98.63169      -12.85621       26.59171
C         97.76729      -11.90776       25.75360
O         98.22005      -11.49566       24.69510
C         98.15262      -14.32909       26.61478
C         97.01285      -14.66939       27.53824
O         97.20955      -15.55218       28.53550
O         95.90496      -14.20028       27.37711
H         97.86503      -12.18024       28.43133
H         99.62491      -12.90057       26.08895
H         99.01454      -14.93544       26.96969
H         97.92144      -14.66047       25.57919
N         96.55678      -11.45524       26.19833
C         95.72782      -10.48310       25.49580
C         94.29462      -10.94938       25.30391
O         93.51764      -10.18676       24.74618
H         96.22341      -11.75811       27.11398
H         96.15998      -10.22412       24.50569
H         95.69404       -9.55293       26.10216
N         93.86710      -12.17562       25.72603
C         92.52068      -12.69666       25.52834
C         91.88002      -13.09885       26.85082
O         92.55268      -13.14477       27.86715
C         92.61407      -13.97468       24.66445
C         93.20903      -13.74234       23.29746
N         92.51928      -14.08114       22.18448
O         94.33420      -13.27712       23.19031
H         94.52950      -12.80710       26.17560
H         91.87520      -11.93746       25.03455
H         91.60540      -14.42585       24.55536
H         93.25630      -14.71518       25.19372
H         91.57961      -14.49825       22.25119
H         92.93356      -13.94210       21.25145
N         90.56535      -13.45419       26.88008
C         89.88180      -14.06652       28.01200
C         89.98706      -13.30457       29.31275
O         89.69457      -12.11757       29.34094
H         90.01287      -13.33663       26.01665
H         90.27305      -15.09542       28.15438
H         88.80555      -14.16049       27.75142
N         90.33212      -13.96983       30.45895
C         90.36932      -13.33699       31.77324
C         91.72209      -12.63257       31.99838
O         92.07264      -11.82047       30.93320
C         90.17261      -14.38772       32.89589
C         88.80521      -15.02943       32.88928
C         87.65446      -14.24792       33.09663
C         88.66685      -16.41723       32.71872
C         86.39030      -14.84353       33.13145
C         87.40045      -17.01104       32.75382
C         86.25936      -16.22887       32.96177
O         85.04702      -16.81802       33.00260
H         90.48113      -14.98944       30.40599
H         89.54926      -12.58866       31.84401
H         90.28519      -13.90880       33.89243
H         90.97110      -15.15755       32.80930
H         87.73451      -13.17843       33.24431
H         89.53766      -17.04247       32.56710
H         85.51478      -14.22822       33.29773
H         87.30656      -18.08219       32.62639
H         84.23445      -16.31409       33.15390
N         91.72201      -11.87392       33.26822
C         92.81061      -10.90946       33.56800
C         94.19092      -11.52191       33.37980
O         94.66566      -11.61530       32.26567
C         92.67592       -9.52111       32.84764
C         93.86720       -8.56447       33.14241
C         91.34546       -8.82349       33.18449
C         94.10193       -8.22630       34.61499
H         90.78786      -11.45842       33.47894
H         92.69684      -10.69864       34.65286
H         92.69414       -9.67196       31.75035
H         93.71931       -7.61778       32.57780
H         94.79847       -9.01798       32.76124
H         90.47709       -9.41471       32.83372
H         91.24638       -8.65991       34.27780
H         91.28766       -7.84192       32.66842
H         94.97617       -7.54478       34.69088
H         93.22314       -7.71544       35.05506
H         94.33642       -9.13941       35.19903
N         94.90701      -11.92511       34.45938
C         96.25457      -12.50059       34.37445
C         96.79707      -13.02324       35.70469
O         97.79983      -13.72473       35.66821
C         97.26930      -11.48689       33.80986
O         97.34163      -10.37128       34.65655
H         94.40818      -11.85251       35.34482
H         96.19105      -13.37786       33.69465
H         96.98227      -11.15754       32.79485
H         98.26740      -11.97770       33.73041
H         98.18212       -9.89791       34.42672
N         96.23459      -12.72187       36.91200
C         96.73889      -13.23403       38.17203
C         96.62201      -14.74998       38.24315
O         95.83663      -15.31452       37.49352
C         95.89961      -12.63199       39.30540
H         95.44549      -12.07666       36.98104
H         97.79065      -12.90741       38.27239
H         94.82630      -12.88933       39.16834
H         96.19882      -13.03413       40.27307
H         96.00387      -11.52606       39.31767
N         97.30665      -15.49935       39.15695
C         98.38396      -14.99860       40.00935
C         98.64964      -15.97256       41.14266
O         98.88962      -17.13780       40.85497
C         99.67677      -14.85750       39.18993
H         97.08809      -16.50810       39.19223
H         98.12965      -14.01112       40.42141
H         99.56383      -14.15635       38.34241
H        100.49368      -14.47694       39.84063
H         99.98349      -15.84055       38.77215
N         98.68291      -15.61208       42.45865
C         98.48171      -14.26653       42.99516
C         97.03367      -13.84372       42.89072
O         96.79003      -12.72344       42.46839
C         98.94221      -14.18175       44.46860
C        100.47996      -14.16117       44.60877
C        101.16234      -15.40181       44.10883
O        101.95449      -15.33409       43.18185
O        100.91566      -16.59185       44.68807
H         98.90697      -16.36298       43.12838
H         99.11026      -13.52708       42.44834
H         98.48000      -14.98886       45.07758
H         98.59964      -13.20755       44.88494
H        100.74549      -14.02406       45.67779
H        100.86869      -13.27948       44.05031
N         96.02288      -14.67231       43.27460
C         94.62022      -14.32052       43.15544
H         94.13995      -14.35960       44.15441
H         94.46881      -13.30446       42.73195
H         94.11645      -15.04749       42.48361
H         96.25018      -15.60734       43.64365
Ca        93.95777      -12.85550       30.16673
O         93.92544      -15.10320       32.32469
H         94.35214      -15.19167       33.21364
H         93.43677      -15.95457       32.19619
O         96.83753      -14.49025       31.33138
H         97.66803      -14.31987       30.82171
H         97.05805      -15.26164       31.91169
O         93.03782      -15.85943       28.87564
H         92.65166      -15.98554       27.97246
H         93.18084      -16.77812       29.21470

Ca 1.0



