%chk=apoCaM-CA-Ng.loop4.water5.frame816.chk
%nprocshared=20
%mem=10GB
%nosave
#b3lyp/svp scf=(tight,noincore,xqc) Test 
#IOP(5/87=12) Density=Current Pop=(MK,readradii) iop(6/33=2) iop(6/42=6)

apoCaM-CA-Ng.loop4.water5.frame816 

   -3  1 
C         86.27319        6.51996       88.18214
C         87.08407        7.48136       89.00297
O         86.52627        8.12526       89.87924
H         85.46330        7.06574       87.65531
H         86.90050        6.00311       87.42478
H         85.82505        5.75143       88.84661
N         88.42361        7.61208       88.78367
C         89.31090        8.49051       89.54225
C         89.28886        8.11172       91.01499
O         89.08943        8.95634       91.87767
C         88.99074        9.97576       89.27001
C         89.03765       10.25623       87.79243
O         87.89535       10.58521       87.17268
O         90.06850       10.12045       87.15302
H         88.85966        7.03446       88.04837
H         90.34886        8.31004       89.18249
H         89.70745       10.64169       89.79619
H         87.97065       10.20693       89.64668
N         89.48143        6.80723       91.35312
C         89.53035        6.30586       92.72520
C         90.74833        6.90406       93.43409
O         91.83239        6.80996       92.87662
C         89.50624        4.73728       92.74648
C         90.67246        4.06083       91.97404
C         88.12577        4.25579       92.24433
C         90.71227        2.54306       92.16295
H         89.58904        6.14244       90.57601
H         88.60604        6.61986       93.24709
H         89.59477        4.40984       93.79838
H         91.63845        4.44497       92.35461
H         90.61739        4.27078       90.88678
H         88.00343        3.16202       92.36157
H         87.31562        4.72414       92.84502
H         87.96632        4.52210       91.17831
H         90.80204        2.29482       93.24196
H         89.80997        2.05358       91.74564
H         91.59292        2.12927       91.62924
N         90.69095        7.59610       94.61654
C         89.51795        7.73280       95.47840
C         89.76094        8.82107       96.51460
O         90.66137        8.68228       97.33184
C         89.24597        6.38439       96.19812
C         88.07002        6.36302       97.13683
O         87.36366        7.34241       97.29222
O         87.79093        5.23424       97.81617
H         91.56763        8.04140       94.93326
H         88.64361        8.04270       94.86972
H         90.15182        6.10228       96.77943
H         89.05846        5.59699       95.45830
N         88.97301        9.93459       96.53343
C         89.10598       11.00096       97.51435
C         87.83100       11.23480       98.30676
O         87.83328       12.13808       99.13056
H         88.24476       10.04139       95.81023
H         89.35280       11.93925       96.97225
H         89.92871       10.79432       98.23036
N         86.69713       10.50238       98.09427
C         85.42448       10.76046       98.75671
C         84.88890        9.51935       99.44971
O         84.58960        9.60358      100.63371
C         84.40849       11.36740       97.75905
C         84.12189       10.56792       96.51275
O         85.01515       10.30534       95.72425
O         82.85744       10.21928       96.21056
H         86.70808        9.75904       97.38922
H         85.54215       11.54379       99.53996
H         84.80806       12.35023       97.42921
H         83.45552       11.55913       98.30100
N         84.73441        8.33122       98.79462
C         84.12408        7.17753       99.43518
C         82.62137        7.33751       99.54288
O         82.00325        6.57702      100.27303
H         85.04135        8.23602       97.81759
H         84.59135        7.02064      100.43275
H         84.30637        6.25946       98.83590
N         81.95696        8.25358       98.77227
C         80.51650        8.46844       98.76938
C         79.72205        7.25048       98.31270
O         78.50385        7.30065       98.40052
C         80.04974        9.04228      100.13144
C         80.72751       10.39703      100.45231
C         80.35104       11.53425       99.51864
N         80.94361       12.74230       99.65589
O         79.50949       11.38142       98.64526
H         82.49383        8.84078       98.12867
H         80.28321        9.23291       98.00282
H         80.28444        8.31828      100.93923
H         78.94886        9.19769      100.13240
H         81.82955       10.26141      100.43185
H         80.44405       10.70689      101.48057
H         81.65660       12.90021      100.38222
H         80.69544       13.52023       99.02573
N         80.32219        6.17046       97.72166
C         79.57027        5.02690       97.20177
C         79.66331        4.90985       95.68181
O         78.92186        4.10194       95.13398
C         80.02525        3.70418       97.88204
C         81.50850        3.37956       97.61703
C         79.75978        3.74051       99.39260
H         81.34115        6.16780       97.59739
H         78.48821        5.16389       97.41764
H         79.41695        2.87275       97.46088
H         82.18052        4.14312       98.06127
H         81.76977        2.39837       98.06639
H         81.70963        3.31745       96.52686
H         78.68077        3.91654       99.58722
H         80.04080        2.76952       99.85371
H         80.34681        4.54468       99.88171
N         80.54633        5.63530       94.93243
C         80.65152        5.52288       93.47832
C         80.56888        6.90408       92.83560
O         80.61375        7.89651       93.55580
C         81.99015        4.81891       93.16430
C         82.21926        4.53685       91.70241
N         83.29993        5.04325       91.06320
O         81.43151        3.82825       91.09301
H         81.21540        6.26321       95.40199
H         79.81790        4.90152       93.08180
H         82.00444        3.84141       93.69516
H         82.82256        5.43384       93.57178
H         83.98194        5.63363       91.56178
H         83.46090        4.83983       90.06590
N         80.42328        7.05752       91.48584
C         80.41397        8.37479       90.85381
C         79.99319        8.29369       89.39468
O         80.55215        7.48286       88.66524
C         81.82151        9.01018       90.91843
C         81.73064       10.47487       90.57757
C         81.96336       10.94194       89.27385
C         81.36527       11.38512       91.58220
C         81.82424       12.30397       88.98282
C         81.23958       12.74380       91.29328
C         81.46274       13.20910       89.99426
O         81.32160       14.52356       89.73131
H         80.29215        6.21720       90.90150
H         79.69040        9.01949       91.40295
H         82.51507        8.46974       90.23526
H         82.27084        8.92827       91.93049
H         82.23081       10.25285       88.48239
H         81.17897       11.03863       92.59194
H         81.99166       12.65373       87.97200
H         80.96096       13.43307       92.08055
H         81.45458       14.88924       88.84572
N         79.06792        9.16065       88.88316
C         78.65545        9.14663       87.48338
C         79.10330       10.42280       86.78272
O         78.61410       11.47992       87.15925
C         77.12121        9.04697       87.36933
C         76.54347        7.79330       88.02865
C         75.04661        7.78694       87.89518
O         74.31562        8.78281       88.43413
O         74.48516        6.88206       87.29943
H         78.66496        9.88243       89.50149
H         79.08569        8.26900       86.98582
H         76.84081        9.04754       86.29149
H         76.66445        9.94258       87.84863
H         76.79916        7.77732       89.10944
H         76.97513        6.89058       87.54417
N         80.01367       10.46198       85.76163
C         80.80503        9.33194       85.27444
C         79.95690        8.26489       84.61582
O         79.23581        8.56560       83.67480
C         81.90422        9.77924       84.27720
C         82.81915       10.84427       84.89440
C         84.12754       10.98225       84.18151
O         85.22137       10.74686       84.92142
O         84.20711       11.33114       83.01451
H         80.20323       11.39150       85.35873
H         81.34603        8.89699       86.14512
H         81.48168       10.16424       83.32283
H         82.51171        8.87353       84.04983
H         83.06009       10.53754       85.93666
H         82.31573       11.83118       84.93730
N         80.02807        6.97608       85.05818
C         79.26367        5.88520       84.49327
H         78.60025        6.21606       83.66798
H         79.96108        5.11504       84.10159
H         78.63834        5.42984       85.28963
H         80.66375        6.74521       85.83705
Ca        87.45382       10.75936       84.97226
O         86.99312        8.75339       82.59208
H         87.42592        8.63566       81.70938
H         86.04860        8.96186       82.38032
O         89.59920       13.04246       85.05749
H         90.03487       13.62232       84.38345
H         89.64762       13.55933       85.90054
O         86.38726       13.32959       86.01287
H         85.72957       12.95256       86.64998
H         86.73557       14.13983       86.46151
O         87.26283       12.74575       82.45466
H         86.79042       11.89869       82.25540
H         86.65442       13.23224       83.06587
O         89.82329       10.83961       82.73659
H         90.71543       11.26227       82.65982
H         89.64747       10.46398       81.83752

Ca 1.0



