%chk=apoCaM-CA-Ng.loop1.water3.frame439.chk
%nprocshared=20
%mem=10GB
%nosave
#b3lyp/svp scf=(tight,noincore,xqc) Test 
#IOP(5/87=12) Density=Current Pop=(MK,readradii) iop(6/33=2) iop(6/42=6)

apoCaM-CA-Ng.loop1.water3.frame439 

   0  1 
C        124.89562       78.79809       62.71271
C        124.35852       78.71435       61.31425
O        123.94598       77.64593       60.88631
H        125.94855       79.14992       62.68727
H        124.28893       79.52104       63.29910
H        124.85698       77.80893       63.21489
N        124.32176       79.83504       60.54493
C        123.76395       79.87530       59.19618
C        124.55043       79.08048       58.15184
O        124.13013       79.12210       57.00756
C        123.62018       81.34374       58.71467
C        124.93717       82.03693       58.45937
O        125.20423       82.44093       57.33875
O        125.81926       82.23343       59.45695
H        124.64130       80.71334       60.97994
H        122.73007       79.46582       59.24503
H        123.03472       81.92587       59.45859
H        123.03342       81.34580       57.76946
N        125.68107       78.35823       58.42194
C        126.47290       77.73074       57.36360
C        126.45779       76.21369       57.42175
O        126.63806       75.68453       58.50970
C        127.94982       78.15566       57.45536
C        128.20018       79.64944       57.22786
C        129.67599       79.92193       56.86887
C        130.69214       79.40468       57.90181
N        132.06056       79.67122       57.45752
H        126.02613       78.27337       59.38704
H        126.09946       78.04927       56.38517
H        128.49620       77.60725       56.66799
H        128.38442       77.84117       58.42933
H        127.87843       80.22191       58.12410
H        127.60175       79.99619       56.35693
H        129.80992       81.01587       56.72923
H        129.89166       79.42559       55.89584
H        130.58194       78.30559       58.02771
H        130.51337       79.89307       58.88381
H        132.73168       79.29008       58.16291
H        132.23860       79.19932       56.54016
H        132.21483       80.70043       57.35928
N        126.41700       75.41184       56.30321
C        126.24015       75.81272       54.89650
C        127.22276       76.90040       54.44975
O        126.79894       78.00055       54.12977
C        124.76146       76.14789       54.60912
C        123.86603       74.96474       54.84115
O        122.65590       75.09308       54.74564
O        124.38304       73.77533       55.20710
H        126.54777       74.40027       56.46271
H        126.43783       74.92969       54.25186
H        124.63343       76.43800       53.54785
H        124.42738       76.97323       55.26558
N        128.56383       76.68437       54.37570
C        129.14102       75.37610       54.59501
C        130.64680       75.33097       54.42166
O        131.27820       76.36919       54.28689
H        129.16513       77.47375       54.09433
H        128.69488       74.70871       53.82645
H        128.89601       75.00759       55.61302
N        131.31293       74.14097       54.35738
C        130.63702       72.84588       54.39183
C        130.43754       72.32868       52.98192
O        131.03465       72.85171       52.04974
C        131.34184       71.85215       55.33817
C        132.74732       71.46216       54.94941
O        133.43402       70.61859       55.74252
O        133.27387       71.88523       53.93246
H        132.32346       74.16978       54.15554
H        129.61729       72.96353       54.80618
H        130.73676       70.92218       55.40117
H        131.37485       72.30720       56.35194
N        129.51711       71.35531       52.74562
C        129.18731       70.87899       51.41521
C        128.68950       71.99712       50.52306
O        129.26181       72.19516       49.46060
H        128.99621       70.95592       53.54157
H        128.38524       70.11378       51.49643
H        130.07965       70.39451       50.96170
N        127.62166       72.76455       50.89077
C        127.05973       73.81797       50.04625
C        127.19456       75.18089       50.71124
O        126.66044       75.38818       51.78800
C        125.58505       73.50102       49.66786
C        124.62651       73.29208       50.85607
O        125.53265       72.38170       48.81865
H        127.18454       72.58573       51.80722
H        127.60913       73.87123       49.08102
H        125.20493       74.36625       49.08067
H        125.84513       71.59315       49.33394
H        123.59824       73.12436       50.47192
H        124.91713       72.40373       51.45345
H        124.59243       74.17151       51.52616
N        127.90400       76.17416       50.09911
C        128.06644       77.51992       50.65810
C        126.77813       78.36019       50.60697
O        126.83092       79.51458       51.00736
C        129.24633       78.28126       49.96476
C        128.95515       78.63013       48.47896
C        130.56126       77.48956       50.13447
C        130.04851       79.48596       47.83281
H        128.37706       75.94572       49.21395
H        128.36922       77.41856       51.72172
H        129.37907       79.24161       50.51262
H        128.01571       79.22064       48.42659
H        128.81812       77.71232       47.87122
H        131.43295       78.07568       49.78186
H        130.73768       77.26581       51.20817
H        130.53836       76.53205       49.57418
H        130.20378       80.42010       48.41387
H        131.00658       78.93251       47.76164
H        129.74389       79.75882       46.80063
N        125.60098       77.87161       50.11064
C        124.38424       78.67291       49.91940
C        123.80165       79.31825       51.18031
O        122.86286       80.08931       51.03555
C        123.27672       77.80924       49.24501
C        122.80281       76.65049       50.14670
O        123.76472       77.29504       48.03280
H        125.58133       76.90204       49.77662
H        124.65103       79.50200       49.22722
H        122.40417       78.46872       49.03003
H        122.98994       76.89808       47.55492
H        122.00766       76.06676       49.63846
H        123.63349       75.96409       50.39083
H        122.38175       77.02739       51.09590
N        124.25535       79.03083       52.43402
C        123.68076       79.55145       53.68004
C        122.23921       79.06287       53.86042
O        121.68483       78.48049       52.94152
C        123.82549       81.09912       53.77882
C        125.29445       81.52562       53.65541
O        123.33481       81.55178       55.01353
H        125.03274       78.37214       52.52711
H        124.26741       79.11536       54.51114
H        123.23897       81.57219       52.96052
H        123.18778       82.53067       54.93062
H        125.37577       82.63087       53.73262
H        125.90013       81.06922       54.46794
H        125.71311       81.22233       52.67533
N        121.57634       79.23337       55.04153
C        120.19415       78.80713       55.24993
C        120.06307       77.72079       56.31764
O        118.93810       77.32667       56.59524
C        119.31453       80.05164       55.50800
C        119.60189       80.80229       56.82293
C        118.78379       82.10334       56.94859
C        119.24677       83.19561       55.96203
N        118.48787       84.43236       56.14594
H        122.05820       79.68884       55.82464
H        119.78575       78.35539       54.31991
H        118.24290       79.75284       55.50590
H        119.47382       80.72304       54.64026
H        120.67454       81.06313       56.92063
H        119.33231       80.12867       57.66504
H        118.92707       82.49794       57.97784
H        117.70173       81.88652       56.80973
H        119.12233       82.86293       54.91122
H        120.32657       83.40469       56.13422
H        117.47604       84.26566       55.94079
H        118.59893       84.78524       57.12400
H        118.85093       85.15660       55.48403
N        121.15034       77.13698       56.91168
C        121.03303       76.04715       57.88234
C        120.30893       76.51327       59.12435
O        120.77439       77.42899       59.78925
C        122.42607       75.47535       58.24641
C        122.42621       74.41652       59.37627
C        121.46122       73.26205       59.19965
O        120.57564       73.09552       60.02269
O        121.57029       72.38703       58.17992
H        122.09561       77.44061       56.63816
H        120.46503       75.21436       57.41040
H        123.09910       76.30019       58.56852
H        122.86509       75.04108       57.33323
H        122.16998       74.93720       60.32438
H        123.45764       74.01853       59.49131
N        119.16545       75.88620       59.51245
C        118.46250       76.24025       60.72275
H        117.57166       75.58738       60.84277
H        119.12890       76.09200       61.59931
H        118.13208       77.29823       60.67500
H        118.78900       75.11321       58.94217
Ca       123.20490       72.60347       56.68075
O        122.02917       69.03602       56.38054
H        121.04277       69.02388       56.46678
H        122.35924       68.73578       57.26439
O        120.72704       71.66235       55.20377
H        119.80511       71.71419       54.84788
H        121.20721       72.40550       54.75937
O        123.92682       70.09674       53.94592
H        123.40564       69.42257       53.44134
H        124.85782       69.76033       53.92012

Ca 1.0



