%chk=apoCaM-CA-Ng.loop3.water4.frame576.chk
%nprocshared=20
%mem=10GB
%nosave
#b3lyp/svp scf=(tight,noincore,xqc) Test 
#IOP(5/87=12) Density=Current Pop=(MK,readradii) iop(6/33=2) iop(6/42=6)

apoCaM-CA-Ng.loop3.water4.frame576 

   0  1 
C         48.38282       -5.58243       63.93664
C         47.81585       -6.57897       62.97446
O         47.49177       -7.68428       63.38621
H         49.40737       -5.30024       63.61541
H         47.74188       -4.67754       63.95887
H         48.43564       -6.01379       64.95929
N         47.69438       -6.25954       61.65587
C         47.18836       -7.19007       60.65563
C         48.32293       -7.60203       59.73073
O         49.41484       -7.05612       59.83366
C         45.99958       -6.53208       59.91028
C         45.34457       -7.46438       58.89080
O         44.26184       -6.86420       58.24054
O         44.87981       -8.64302       59.48385
H         48.01048       -5.32795       61.34119
H         46.82939       -8.11814       61.15084
H         46.35256       -5.62034       59.38006
H         45.24321       -6.21205       60.65182
N         48.14160       -8.59919       58.82228
C         49.17448       -9.07284       57.92052
C         48.75269       -8.72941       56.50771
O         49.44862       -7.97336       55.84481
C         49.37759      -10.59372       58.11006
C         49.78618      -10.95241       59.55276
C         50.08594      -12.45364       59.73836
C         48.89873      -13.40885       59.49491
N         47.81720      -13.21997       60.46383
H         47.23040       -9.06946       58.76433
H         50.14451       -8.56527       58.12328
H         50.16791      -10.93835       57.40873
H         48.43514      -11.12524       57.86720
H         49.00062      -10.63353       60.27040
H         50.71329      -10.39234       59.80181
H         50.45777      -12.61628       60.77358
H         50.90505      -12.73018       59.04015
H         49.27581      -14.45148       59.58956
H         48.50731      -13.29860       58.46189
H         47.40388      -12.26463       60.38162
H         47.06517      -13.92113       60.27164
H         48.17465      -13.37449       61.43479
N         47.59761       -9.23548       55.99019
C         47.10024       -8.89114       54.66242
C         46.49453       -7.48852       54.59329
O         46.18261       -7.05888       53.49166
C         46.12566       -9.97879       54.14500
C         45.02721      -10.35638       55.10778
O         44.13680       -9.45163       55.53882
O         44.95084      -11.50415       55.51595
H         47.06038       -9.89843       56.56507
H         47.95777       -8.90163       53.95276
H         46.72494      -10.89663       53.95594
H         45.68777       -9.66326       53.17359
N         46.30890       -6.70523       55.69768
C         45.79123       -5.34228       55.63306
C         44.36286       -5.21073       55.12761
O         43.91709       -4.07917       54.99607
H         46.58707       -7.05699       56.62130
H         46.45751       -4.74572       54.97340
H         45.82688       -4.88946       56.64846
N         43.58301       -6.28974       54.82774
C         42.22960       -6.19047       54.29203
C         41.22506       -6.81675       55.24543
O         41.61628       -7.40160       56.24430
C         42.16539       -6.90887       52.92555
C         43.21201       -6.41395       51.95695
N         43.24656       -5.12015       51.56445
O         44.04020       -7.19876       51.51874
H         43.95660       -7.22829       54.96878
H         41.94628       -5.12410       54.15905
H         41.16225       -6.77449       52.46821
H         42.32467       -7.99963       53.08722
H         42.55722       -4.44170       51.91710
H         43.96988       -4.79610       50.90496
N         39.89132       -6.71461       54.99516
C         38.85985       -7.30140       55.83604
C         38.91774       -6.78992       57.25973
O         38.94057       -5.58337       57.45791
H         39.58228       -6.18958       54.16247
H         38.94001       -8.41008       55.81340
H         37.86980       -7.02832       55.41046
N         38.88281       -7.66462       58.30830
C         38.86341       -7.23317       59.70514
C         40.22297       -6.77796       60.20566
O         41.21004       -6.85385       59.49327
C         38.26422       -8.33578       60.61757
C         36.75411       -8.34861       60.53639
C         36.03882       -7.21476       60.96968
C         36.04283       -9.46660       60.07352
C         34.64568       -7.19358       60.93549
C         34.64073       -9.44339       60.04180
C         33.93966       -8.30534       60.47410
O         32.59200       -8.26838       60.45731
H         38.77160       -8.66806       58.09888
H         38.22171       -6.33045       59.78492
H         38.48947       -8.13984       61.68615
H         38.72196       -9.31862       60.37432
H         36.56108       -6.34351       61.34597
H         36.56788      -10.35318       59.74208
H         34.11632       -6.31169       61.27542
H         34.09888      -10.31005       59.68585
H         32.05797       -9.01667       60.15683
N         40.28534       -6.18748       61.43625
C         41.43468       -5.51900       62.03674
C         42.55295       -6.47490       62.42165
O         43.16324       -7.06280       61.54324
C         41.98340       -4.36710       61.13289
C         42.99638       -3.51170       61.94266
C         40.83373       -3.49490       60.58709
C         43.69980       -2.43004       61.12362
H         39.40718       -6.11289       61.97213
H         41.05549       -5.04552       62.97074
H         42.50692       -4.81158       60.25735
H         43.79553       -4.16659       62.34968
H         42.47404       -3.03357       62.80067
H         41.21364       -2.70944       59.90529
H         40.13253       -4.09880       59.97546
H         40.26682       -3.02488       61.41681
H         44.41616       -1.88920       61.77749
H         44.26188       -2.89132       60.28450
H         42.98441       -1.68248       60.72804
N         42.91794       -6.61969       63.73095
C         44.15837       -7.27236       64.14594
C         43.96114       -8.69130       64.64997
O         44.95665       -9.32617       64.97222
C         44.83477       -6.42051       65.23972
O         45.08730       -5.12081       64.77435
H         42.36046       -6.14368       64.45734
H         44.85140       -7.33582       63.27908
H         45.80137       -6.87151       65.54943
H         44.19712       -6.39220       66.15673
H         44.32115       -4.55511       65.05685
N         42.73047       -9.26686       64.75154
C         42.54511      -10.62996       65.24075
C         43.14740      -11.63617       64.27052
O         42.71333      -11.64155       63.12896
C         41.04903      -10.92633       65.39810
H         41.89721       -8.71474       64.49991
H         42.99715      -10.70327       66.24342
H         40.52471      -10.83608       64.42123
H         40.90065      -11.95327       65.79376
H         40.59443      -10.20400       66.10882
N         44.12265      -12.54028       64.58814
C         44.77197      -12.71300       65.88613
C         43.76798      -13.13687       66.95107
O         43.08038      -14.12159       66.71727
C         45.84438      -13.81056       65.77190
H         44.42952      -13.16169       63.82126
H         45.30671      -11.78294       66.14342
H         46.36790      -13.95758       66.73817
H         45.38818      -14.77956       65.47281
H         46.60016      -13.52742       65.00859
N         43.60440      -12.50171       68.15376
C         44.42177      -11.39283       68.65027
C         43.70947      -10.48754       69.65893
O         44.33985       -9.53178       70.09348
C         45.76095      -11.91412       69.23603
C         45.63010      -12.82107       70.47687
C         45.01143      -14.15568       70.17256
O         45.54132      -14.91049       69.37243
O         43.88169      -14.53632       70.79877
H         42.93286      -12.94068       68.79716
H         44.65820      -10.70262       67.81872
H         46.36856      -11.03124       69.53254
H         46.34268      -12.44343       68.45597
H         45.04631      -12.29802       71.26462
H         46.64724      -13.01312       70.88119
N         42.42302      -10.67623       70.07537
C         41.80303       -9.78862       71.03580
H         40.76134      -10.11543       71.23918
H         42.37305       -9.80543       71.98944
H         41.77997       -8.75251       70.63584
H         41.84511      -11.44608       69.71988
Ca        42.91533       -8.69654       58.36832
O         41.21200      -10.55934       55.71867
H         42.04975      -11.07187       55.59687
H         40.75543      -10.61745       54.84255
O         40.46934      -10.75000       58.58958
H         40.24312      -11.08784       59.49160
H         39.70094      -11.02009       58.02701
O         43.93956      -11.57759       58.55641
H         44.77946      -11.83066       59.01550
H         43.78863      -12.29758       57.89418
O         42.63158       -9.86624       60.99830
H         42.30640      -10.75379       60.70583
H         41.86353       -9.46300       61.47499

Ca 1.0



