%chk=apoCaM-CA-Ng.loop1.water4.frame388.chk
%nprocshared=20
%mem=10GB
%nosave
#b3lyp/svp scf=(tight,noincore,xqc) Test 
#IOP(5/87=12) Density=Current Pop=(MK,readradii) iop(6/33=2) iop(6/42=6)

apoCaM-CA-Ng.loop1.water4.frame388 

   0  1 
C          1.95850       71.55960       13.59121
C          2.62873       70.23915       13.33516
O          3.67341       70.21543       12.70053
H          1.02357       71.43401       14.17870
H          2.64207       72.22041       14.16438
H          1.70313       72.04398       12.62637
N          2.08563       69.08977       13.82174
C          2.69893       67.77476       13.65728
C          2.53866       67.20653       12.24295
O          2.90956       66.05915       12.06582
C          2.10734       66.76896       14.67874
C          2.37083       67.16811       16.11002
O          3.12818       66.37966       16.89738
O          1.89270       68.19123       16.57274
H          1.22535       69.16397       14.38555
H          3.78250       67.83845       13.90244
H          2.59677       65.78043       14.52698
H          1.01592       66.64143       14.51689
N          2.03391       67.91089       11.18511
C          1.82966       67.32178        9.85891
C          2.86474       67.80822        8.85191
O          3.07163       69.01296        8.79122
C          0.44344       67.70236        9.30594
C         -0.72879       67.07500       10.06567
C         -2.03733       67.40871        9.33298
C         -3.24695       66.71375        9.96329
N         -4.46148       67.00593        9.20032
H          1.78791       68.90291       11.30064
H          1.86606       66.22706        9.92043
H          0.38627       67.33162        8.25877
H          0.33425       68.80978        9.27793
H         -0.76078       67.44581       11.11323
H         -0.59578       65.97089       10.07761
H         -1.95594       67.06414        8.27781
H         -2.19505       68.51005        9.33369
H         -3.37317       67.05682       11.01347
H         -3.07790       65.61371        9.96655
H         -4.35630       66.67026        8.21452
H         -5.27133       66.51071        9.63769
H         -4.64981       68.03477        9.20046
N          3.49582       66.99270        7.93904
C          3.35874       65.53728        7.78860
C          1.91702       65.11078        7.55599
O          1.33480       64.45849        8.41435
C          4.09110       64.77596        8.90998
C          5.58425       64.97827        8.82337
O          6.10246       65.79471        7.88311
O          6.32772       64.39048        9.59024
H          4.11513       67.45411        7.25509
H          3.90466       65.20400        6.88287
H          3.90551       63.68691        8.78804
H          3.72779       65.08862        9.89686
N          1.26735       65.36705        6.38489
C          1.92512       65.97412        5.22962
C          1.08572       65.90520        3.96488
O         -0.06082       65.49557        4.02186
H          0.29756       65.03401        6.30527
H          2.82475       65.37381        5.00244
H          2.22093       67.01902        5.45593
N          1.60695       66.21770        2.73742
C          2.97395       66.66951        2.48964
C          3.93976       65.52081        2.18889
O          5.11671       65.77977        2.00631
C          2.97935       67.74289        1.38289
C          2.44819       67.23206        0.06840
O          3.06275       66.21722       -0.56906
O          1.45438       67.73878       -0.42711
H          1.00070       66.03876        1.92027
H          3.37631       67.16117        3.40200
H          4.01267       68.12075        1.23048
H          2.35322       68.59654        1.72531
N          3.52156       64.22281        2.21722
C          4.41968       63.07622        2.17452
C          4.54522       62.52975        3.57811
O          4.12946       63.21849        4.49740
H          2.53812       64.01815        2.41514
H          5.43683       63.33271        1.81061
H          3.97861       62.31955        1.49106
N          5.08154       61.29412        3.83245
C          5.17252       60.72515        5.18372
C          3.90124       61.02383        5.96550
O          3.95401       61.79372        6.91353
C          6.49224       61.16026        5.89505
C          6.69556       62.67110        6.07180
O          7.59028       60.66453        5.17245
H          5.36370       60.70478        3.03592
H          5.24992       59.61753        5.10673
H          6.49768       60.71725        6.92064
H          7.71710       59.71827        5.44631
H          7.65076       62.85340        6.60972
H          6.75663       63.17522        5.08757
H          5.89232       63.13971        6.66844
N          2.69863       60.52149        5.55482
C          1.42517       61.04184        6.05500
C          0.94164       60.21027        7.24293
O         -0.16124       59.68331        7.22648
C          0.38723       61.19405        4.88389
C          1.02739       61.91515        3.66272
C         -0.85571       61.98094        5.35687
C          0.10977       62.05133        2.44339
H          2.68874       59.86411        4.75975
H          1.59590       62.07340        6.43992
H          0.07768       60.17766        4.55449
H          1.90503       61.33999        3.30516
H          1.37280       62.92081        3.97535
H         -1.34588       61.51643        6.23116
H         -0.56932       63.01516        5.63367
H         -1.62682       62.03080        4.56312
H         -0.25575       61.05346        2.12034
H         -0.75162       62.71638        2.65030
H          0.67855       62.50368        1.60287
N          1.74846       60.07180        8.33215
C          1.38822       59.40078        9.57263
C          1.53562       60.35536       10.76975
O          1.39669       59.89413       11.88985
C          2.26693       58.13289        9.75032
C          3.77135       58.41705        9.89857
O          2.04044       57.22763        8.69712
H          2.68826       60.47398        8.30239
H          0.33164       59.05342        9.54348
H          1.94156       57.62740       10.68552
H          2.42971       57.61463        7.86942
H          3.95986       59.08093       10.76793
H          4.31116       57.46165       10.06767
H          4.18716       58.89066        8.98540
N          1.82709       61.68440       10.59791
C          2.04299       62.70353       11.62823
C          3.29188       62.43629       12.46170
O          3.35692       61.43642       13.16115
C          0.78781       63.07826       12.46865
C          0.36603       62.13043       13.59781
O         -0.29492       63.29068       11.59832
H          1.91739       62.04496        9.63870
H          2.23269       63.64092       11.06058
H          1.05518       64.03881       12.97312
H         -0.88838       63.96316       12.02374
H         -0.47363       62.59354       14.15839
H         -0.00283       61.16067       13.22747
H          1.19509       61.98261       14.32021
N          4.33708       63.31545       12.41094
C          5.58019       63.18849       13.16330
C          6.53996       64.29248       12.71077
O          7.60324       63.97979       12.19461
C          5.33003       63.27158       14.69134
C          6.57818       62.84611       15.48427
C          6.44545       63.01901       17.00712
C          5.26510       62.25566       17.63072
N          5.28129       62.38234       19.08867
H          4.25752       64.11142       11.77236
H          6.01932       62.19413       12.92114
H          4.51331       62.58069       14.97533
H          5.01242       64.29801       14.97332
H          7.45224       63.45099       15.16164
H          6.79382       61.77855       15.25499
H          6.34423       64.09949       17.24667
H          7.39020       62.64911       17.46292
H          5.32289       61.17880       17.35851
H          4.30664       62.66817       17.24680
H          4.44859       61.89143       19.48723
H          6.14813       61.94268       19.47556
H          5.24490       63.39024       19.36636
N          6.18843       65.61031       12.83814
C          6.97392       66.73616       12.33569
C          7.37488       67.63720       13.48365
O          6.50684       68.11096       14.20526
C          6.11932       67.54549       11.32746
C          6.78752       68.80375       10.73408
C          7.97799       68.51846        9.85867
O          9.08781       67.94901       10.36415
O          7.95926       68.85017        8.68398
H          5.28865       65.83375       13.28837
H          7.88066       66.36853       11.81358
H          5.19985       67.88594       11.84566
H          5.79926       66.89412       10.49812
H          7.08908       69.49928       11.54480
H          6.02094       69.32457       10.11779
N          8.68104       67.96103       13.68175
C          9.09160       68.87681       14.72260
H         10.19128       69.02597       14.68351
H          8.59779       69.86184       14.57365
H          8.81573       68.47015       15.71770
H          9.40552       67.57308       13.05924
Ca         8.28679       66.18481        7.53813
O          6.16840       65.98661        5.02383
H          5.34748       65.44575        4.92031
H          6.00926       66.78572        4.46313
O          9.03105       64.87572        4.66590
H          9.68834       64.23816        5.04221
H          8.64033       64.40085        3.88979
O         10.37615       64.17910        7.93355
H         10.69840       65.11505        7.97616
H          9.64084       64.13713        8.59621
O         10.37188       67.87427        5.81329
H         10.48766       68.23193        6.72945
H         11.01420       67.12270        5.75743

Ca 1.0



