%chk=apoCaM-CA-Ng.loop3.water2.frame973.chk
%nprocshared=20
%mem=10GB
%nosave
#b3lyp/svp scf=(tight,noincore,xqc) Test 
#IOP(5/87=12) Density=Current Pop=(MK,readradii) iop(6/33=2) iop(6/42=6)

apoCaM-CA-Ng.loop3.water2.frame973 

   0  1 
C         80.74365       34.24796       63.63103
C         81.61359       34.81220       64.71570
O         81.30296       34.61760       65.88246
H         79.72286       34.67346       63.70083
H         81.15892       34.46413       62.62394
H         80.68926       33.14368       63.74853
N         82.75933       35.47889       64.40364
C         83.71869       35.88787       65.41789
C         83.19016       37.02390       66.29566
O         82.98100       38.11904       65.79285
C         85.05236       36.27427       64.74365
C         86.19564       36.31288       65.70596
O         87.31932       36.55584       65.29554
O         86.00710       36.02666       67.00766
H         83.00627       35.59063       63.40780
H         83.91990       34.98568       66.02761
H         84.95134       37.24319       64.20883
H         85.32161       35.50270       63.99594
N         82.94789       36.82067       67.62512
C         82.45077       37.86014       68.53512
C         83.46199       38.97564       68.81886
O         83.07129       39.95835       69.43368
C         81.91949       37.24234       69.86089
C         82.95882       36.45505       70.69357
C         82.32271       35.71955       71.89194
C         81.83952       36.61753       73.04378
N         82.95673       37.25924       73.73982
H         83.06283       35.86472       67.97507
H         81.56947       38.32906       68.04299
H         81.09794       36.54413       69.58767
H         81.47907       38.04960       70.48404
H         83.79974       37.10385       71.01348
H         83.38389       35.65605       70.06421
H         83.06161       35.00175       72.31059
H         81.46420       35.12044       71.51542
H         81.30392       35.97030       73.77420
H         81.11724       37.38006       72.68337
H         83.46007       37.92065       73.10835
H         82.58670       37.79442       74.55812
H         83.62077       36.53216       74.09503
N         84.76419       38.89891       68.41897
C         85.75972       39.94753       68.63275
C         86.29214       40.45222       67.29380
O         86.17279       41.64008       67.02649
C         86.86953       39.47956       69.62142
C         87.37769       38.05396       69.48450
O         87.23759       37.28246       70.41729
O         87.97607       37.62015       68.36158
H         85.08017       38.05127       67.93969
H         85.30199       40.83958       69.11965
H         86.42543       39.54629       70.63998
H         87.71372       40.20294       69.59305
N         86.86668       39.60926       66.39645
C         87.37947       40.00151       65.09527
C         88.85173       39.67203       64.92562
O         89.34030       39.83651       63.81627
H         86.91548       38.61934       66.62291
H         87.23341       41.08508       64.89649
H         86.80593       39.43609       64.32928
N         89.63277       39.23589       65.96196
C         91.05825       38.93091       65.82712
C         91.37237       37.52761       66.32881
O         90.53155       36.91866       66.95978
C         91.85798       39.94174       66.66926
C         91.56547       41.36170       66.25338
N         90.96970       42.22325       67.11227
O         91.86013       41.73463       65.12784
H         89.22543       39.16330       66.90316
H         91.36898       39.00217       64.76151
H         92.94919       39.75454       66.57847
H         91.57657       39.80409       67.73778
H         90.70093       41.92550       68.06190
H         90.76353       43.19109       66.82442
N         92.58938       36.96005       66.10836
C         93.01112       35.67519       66.66258
C         92.11244       34.50780       66.29261
O         91.84122       34.32230       65.11447
H         93.27405       37.47882       65.53658
H         93.08648       35.75626       67.76752
H         94.02961       35.45665       66.27441
N         91.68093       33.62673       67.25451
C         90.88962       32.43182       66.94469
C         89.38573       32.77645       66.71060
O         89.22754       34.01185       66.08681
C         90.95444       31.39535       68.10399
C         92.30316       30.78617       68.40412
C         92.82514       30.84843       69.70777
C         93.00898       30.07257       67.41891
C         94.02077       30.19709       70.02453
C         94.21043       29.42842       67.73686
C         94.71510       29.47967       69.04069
O         95.85658       28.82640       69.33936
H         92.01209       33.76051       68.22213
H         91.31159       31.96187       66.02841
H         90.31960       30.52043       67.87702
H         90.53345       31.85849       69.01755
H         92.29209       31.37448       70.48978
H         92.62200       29.99389       66.41117
H         94.39707       30.23695       71.03912
H         94.73995       28.87128       66.97383
H         96.22144       28.81108       70.23603
N         88.72047       31.70677       65.93156
C         87.24709       31.75085       65.78770
C         86.54239       32.10759       67.08583
O         86.70258       33.22485       67.55410
C         86.79291       32.67622       64.62317
C         85.25693       32.60227       64.37378
C         87.56830       32.37229       63.33005
C         84.71070       31.22499       63.98101
H         88.93792       30.77961       66.35306
H         86.94828       30.72165       65.49359
H         87.02742       33.72672       64.89183
H         84.99109       33.30702       63.55888
H         84.72022       32.92889       65.28749
H         87.23864       33.05592       62.51874
H         88.65581       32.53747       63.48211
H         87.41993       31.32260       63.00471
H         84.86730       30.47958       64.78590
H         83.61608       31.30433       63.81251
H         85.17444       30.86214       63.04176
N         85.74143       31.20501       67.72383
C         85.04151       31.52840       68.96237
C         84.62805       30.26854       69.69003
O         83.79807       29.52571       69.18333
C         83.78420       32.38084       68.69773
O         84.09421       33.57077       68.04076
H         85.67734       30.24678       67.34665
H         85.73960       32.08910       69.62133
H         83.25370       32.60695       69.65180
H         83.07284       31.81695       68.05670
H         84.53514       34.15216       68.70841
N         85.17308       29.98447       70.90729
C         84.81142       28.82225       71.71717
C         85.58969       28.81051       73.03417
O         86.65945       29.40310       73.09072
C         85.12157       27.51604       70.97238
H         85.86165       30.65525       71.27938
H         83.72400       28.89261       71.92433
H         84.55524       27.42321       70.02649
H         86.20685       27.45143       70.74221
H         84.83945       26.65195       71.59584
N         85.17814       28.13352       74.14574
C         83.87985       27.49024       74.31604
C         83.96405       26.43159       75.41012
O         84.42493       26.76525       76.49365
C         82.84984       28.54479       74.74293
H         85.79024       28.19786       74.97497
H         83.53027       27.04933       73.36731
H         81.85488       28.06895       74.88150
H         83.15038       29.02578       75.69914
H         82.74926       29.33800       73.97472
N         83.49423       25.15454       75.27584
C         82.79711       24.63354       74.10281
C         83.70757       24.33410       72.91737
O         83.18037       24.02496       71.85692
C         81.96383       23.36350       74.44086
C         82.75227       22.07539       74.77526
C         83.44154       22.10788       76.10774
O         84.65185       21.96819       76.18035
O         82.72115       22.27558       77.23417
H         83.53437       24.57881       76.12493
H         82.04928       25.40029       73.80153
H         81.35470       23.13136       73.53937
H         81.24695       23.58902       75.26039
H         83.48028       21.85768       73.96424
H         82.03207       21.23071       74.81353
N         85.06679       24.34668       73.01355
C         85.90798       23.96788       71.89463
H         86.97794       24.02523       72.18352
H         85.67899       22.92460       71.58719
H         85.73614       24.63701       71.02698
H         85.52488       24.59200       73.90218
Ca        88.54493       35.48141       67.74381
O         89.28375       33.84768       70.17798
H         90.17617       33.73596       70.59135
H         88.83408       32.97481       70.30915
O         86.46378       34.57377       70.40737
H         85.75883       35.26451       70.34301
H         86.71680       34.56966       71.36379

Ca 1.0



