%chk=apoCaM-CA-Ng.loop3.water5.frame431.chk
%nprocshared=20
%mem=10GB
%nosave
#b3lyp/svp scf=(tight,noincore,xqc) Test 
#IOP(5/87=12) Density=Current Pop=(MK,readradii) iop(6/33=2) iop(6/42=6)

apoCaM-CA-Ng.loop3.water5.frame431 

   0  1 
C         73.49551       63.82689       91.21659
C         72.17369       63.14443       91.03412
O         71.17943       63.82915       90.84689
H         74.20267       63.49291       90.42978
H         73.37990       64.93108       91.14940
H         73.90728       63.57497       92.21608
N         72.08947       61.78091       91.08188
C         70.84215       61.02999       90.93852
C         69.89269       61.26420       92.12146
O         68.74445       60.84930       92.04432
C         70.21088       61.32521       89.55037
C         69.05015       60.42528       89.22850
O         69.22047       59.08999       89.18763
O         67.95273       60.90116       88.98439
H         72.95768       61.24208       91.22164
H         71.08890       59.94528       90.94869
H         70.98285       61.15489       88.76848
H         69.87750       62.38029       89.47752
N         70.31973       61.86615       93.27448
C         69.45963       62.14113       94.42581
C         69.36438       63.64199       94.69969
O         68.61665       64.03215       95.58506
C         70.00382       61.41732       95.66972
C         70.07675       59.89643       95.47220
C         70.65384       59.21790       96.71909
C         70.75472       57.69973       96.52804
N         71.32478       57.06322       97.71493
H         71.30992       62.13591       93.36369
H         68.42422       61.78309       94.23056
H         69.34304       61.63245       96.53882
H         71.02109       61.80720       95.89594
H         70.73228       59.66366       94.60488
H         69.05781       59.50025       95.26649
H         70.00373       59.43663       97.59450
H         71.66977       59.62527       96.91741
H         71.40068       57.47787       95.64920
H         69.74223       57.28036       96.33522
H         70.71805       57.24506       98.54727
H         71.38293       56.03153       97.55621
H         72.28726       57.43243       97.89309
N         70.06892       64.54271       93.95372
C         69.94744       65.99037       94.05247
C         68.48945       66.37703       93.81951
O         67.92030       65.96724       92.81956
C         70.95178       66.62203       93.04077
C         70.71551       68.07204       92.82779
O         71.54534       69.03275       93.26151
O         69.71557       68.40316       92.22670
H         70.70196       64.19268       93.23126
H         70.24512       66.33517       95.06748
H         70.86571       66.14938       92.03851
H         71.98095       66.44313       93.42076
N         67.80969       67.11922       94.74716
C         66.37737       67.37750       94.67224
C         65.91742       68.17308       93.46573
O         64.72902       68.12217       93.18224
H         68.30744       67.44876       95.58732
H         66.02744       67.90066       95.58958
H         65.86962       66.38946       94.64705
N         66.76454       68.94724       92.72717
C         66.35388       69.64368       91.50819
C         67.18937       69.21441       90.29393
O         67.46254       70.03151       89.42505
C         66.32701       71.17422       91.72109
C         67.68982       71.81599       92.06050
N         67.60238       73.26391       91.99192
O         68.07793       71.49000       93.35957
H         67.72546       69.05389       93.05436
H         65.31047       69.35678       91.25432
H         65.60077       71.42857       92.52368
H         65.94283       71.62175       90.77802
H         67.10746       73.54218       91.12301
H         68.58039       73.61890       91.92182
N         67.56644       67.91155       90.14704
C         68.26086       67.33445       88.99735
C         69.67808       67.81703       88.69931
O         70.29767       67.21076       87.83637
H         67.28801       67.25024       90.88186
H         67.63996       67.46298       88.08551
H         68.34514       66.24092       89.18805
N         70.25634       68.89149       89.30563
C         71.60500       69.35964       88.98867
C         71.77640       70.77840       89.49532
O         71.53304       71.03599       90.66542
C         72.67860       68.42988       89.59390
C         74.07211       68.97869       89.36125
C         74.57157       69.15564       88.05849
C         74.87397       69.34703       90.45532
C         75.84438       69.70020       87.85705
C         76.14465       69.89180       90.25128
C         76.63319       70.07302       88.95010
O         77.85293       70.60783       88.73896
H         69.70940       69.43759       89.97775
H         71.73127       69.38398       87.88358
H         72.60342       67.41222       89.15533
H         72.49052       68.34016       90.68392
H         73.97420       68.88268       87.19821
H         74.51202       69.22488       91.46848
H         76.21505       69.84065       86.84937
H         76.74517       70.17867       91.10533
H         78.42377       70.89101       89.46770
N         72.19521       71.75855       88.64530
C         72.23821       73.16267       89.03175
C         70.81505       73.73483       89.06490
O         70.64833       74.81530       89.60470
C         73.16440       73.95946       88.04716
C         74.61124       73.38530       87.99575
C         73.21554       75.47302       88.33655
C         75.38553       73.44943       89.31656
H         72.44741       71.50162       87.67832
H         72.67276       73.23470       90.05105
H         72.74523       73.85071       87.02120
H         75.19014       73.94749       87.23045
H         74.58867       72.32775       87.66253
H         73.90080       75.97446       87.61981
H         72.22410       75.94438       88.19029
H         73.55955       75.67761       89.37077
H         76.40672       73.04361       89.16208
H         75.48973       74.49336       89.67434
H         74.89422       72.83649       90.09663
N         69.75768       73.05873       88.50543
C         68.37325       73.50835       88.32348
C         68.06008       74.95581       88.68148
O         67.11034       75.16911       89.41965
C         67.93776       73.24599       86.87166
O         68.71589       73.98229       85.97081
H         69.92822       72.11937       88.12234
H         67.72183       72.84663       88.93651
H         66.86311       73.51921       86.76063
H         68.04881       72.15853       86.65537
H         68.36845       73.75874       85.06843
N         68.77229       76.00551       88.16907
C         68.42905       77.40100       88.41798
C         68.25239       77.67622       89.90933
O         67.14634       77.99626       90.32712
C         67.17078       77.75320       87.60926
H         69.59144       75.81549       87.57246
H         69.23879       78.05403       88.02301
H         67.35642       77.56221       86.53024
H         66.29762       77.14655       87.92796
H         66.92692       78.82955       87.73411
N         69.29947       77.57690       90.77902
C         69.12158       77.78175       92.21589
C         70.44893       77.98338       92.91765
O         71.31689       77.12559       92.83949
C         68.38446       76.59539       92.84377
H         70.24026       77.38258       90.40230
H         68.50905       78.69702       92.37121
H         68.99025       75.67590       92.73204
H         68.21999       76.77839       93.92723
H         67.39623       76.43614       92.36542
N         70.66138       79.12902       93.62719
C         71.90354       79.48066       94.30084
C         73.02271       79.57231       93.28112
O         74.05294       78.93035       93.43823
C         72.23507       78.52397       95.47295
C         71.09591       78.43034       96.49825
C         71.50578       77.59928       97.68164
O         71.83116       76.43163       97.53516
O         71.51248       78.14177       98.91463
H         69.90346       79.82719       93.67375
H         71.77188       80.49693       94.73696
H         73.14289       78.91543       95.98518
H         72.46433       77.50467       95.09459
H         70.20024       77.97036       96.02719
H         70.82716       79.44919       96.85147
N         72.85704       80.35534       92.17863
C         73.84947       80.48735       91.13282
H         74.77345       79.91182       91.34994
H         73.42266       80.11706       90.17695
H         74.11897       81.55730       91.01703
H         71.97188       80.87117       92.05829
Ca        70.27817       70.88583       93.34019
O         69.47901       73.08808       95.38467
H         70.11817       73.81511       95.59064
H         68.59290       73.52945       95.37016
O         73.48493       71.77252       92.91855
H         73.70510       72.65266       93.31455
H         73.96372       71.76453       92.05298
O         72.34587       71.49595       95.75812
H         73.27697       71.21757       95.94791
H         71.98740       71.78206       96.63547
O         71.10902       73.94609       92.87465
H         71.21659       73.45377       92.02360
H         71.92340       74.50363       92.94336
O         69.37342       69.83877       95.82555
H         69.95579       69.57772       96.58172
H         68.62897       70.34278       96.23946

Ca 1.0



