%chk=apoCaM-CA-Ng.loop1.water6.frame735.chk
%nprocshared=20
%mem=10GB
%nosave
#b3lyp/svp scf=(tight,noincore,xqc) Test 
#IOP(5/87=12) Density=Current Pop=(MK,readradii) iop(6/33=2) iop(6/42=6)

apoCaM-CA-Ng.loop1.water6.frame735 

   0  1 
C         76.18434       33.05743       -1.59863
C         76.99248       34.32215       -1.68957
O         76.40753       35.39470       -1.64848
H         75.46036       33.00602       -2.43736
H         76.83078       32.15485       -1.62844
H         75.62558       33.04820       -0.63776
N         78.35270       34.26951       -1.77452
C         79.21207       35.45109       -1.76220
C         80.14586       35.48917       -2.97087
O         80.89321       34.54880       -3.19058
C         79.96710       35.53638       -0.41502
C         80.83122       34.36617       -0.01018
O         81.46106       34.40793        1.17899
O         80.96722       33.38283       -0.71867
H         78.79830       33.34157       -1.78840
H         78.59221       36.37385       -1.78836
H         79.20152       35.65580        0.38286
H         80.59510       36.45330       -0.42054
N         80.14920       36.57596       -3.79946
C         81.00177       36.71062       -4.98166
C         82.48179       36.75772       -4.63025
O         82.89617       37.63724       -3.88698
C         80.66863       38.02342       -5.73197
C         81.53299       38.20749       -7.00163
C         81.29181       39.54207       -7.72363
C         81.59913       40.80102       -6.88371
N         82.98107       40.83459       -6.39676
H         79.49506       37.34500       -3.58808
H         80.78982       35.86396       -5.67261
H         80.84498       38.86671       -5.03175
H         79.59533       38.02833       -6.02057
H         81.31567       37.37475       -7.70510
H         82.61395       38.15144       -6.75958
H         80.23444       39.58814       -8.06056
H         81.93919       39.55909       -8.62787
H         80.90136       40.87761       -6.02333
H         81.42157       41.69076       -7.52672
H         83.14690       40.07262       -5.70105
H         83.65193       40.74491       -7.19374
H         83.14862       41.74760       -5.91532
N         83.34637       35.89453       -5.23124
C         84.80279       36.00618       -5.15596
C         85.40500       36.06192       -6.56271
O         84.71936       35.71830       -7.51668
C         85.39955       34.85793       -4.29654
C         84.66854       33.54887       -4.35791
O         83.41295       33.50611       -3.87510
O         85.23712       32.52165       -4.68969
H         82.95453       35.14774       -5.82700
H         85.08541       36.96718       -4.67513
H         85.32542       35.16882       -3.23476
H         86.46986       34.68662       -4.50642
N         86.68212       36.49190       -6.80383
C         87.56218       37.03886       -5.77682
C         88.99879       37.18062       -6.22006
O         89.33744       36.90167       -7.36058
H         87.01910       36.45484       -7.77699
H         87.62363       36.35014       -4.92377
H         87.16410       38.01152       -5.41767
N         89.92702       37.55944       -5.29839
C         91.35931       37.53023       -5.55966
C         91.78363       36.08281       -5.78601
O         91.60616       35.26553       -4.89228
C         92.11709       38.13928       -4.35354
C         93.61373       38.22169       -4.51908
O         94.35534       38.74311       -3.52335
O         94.16650       37.83300       -5.53595
H         89.59721       37.82694       -4.35758
H         91.57809       38.16069       -6.45049
H         91.89696       37.54572       -3.43928
H         91.74413       39.17406       -4.18975
N         92.35581       35.69719       -6.96192
C         92.81981       34.33951       -7.21691
C         91.72282       33.29342       -7.35219
O         92.06609       32.13864       -7.55618
H         92.52495       36.40775       -7.68943
H         93.51987       34.04262       -6.40511
H         93.38800       34.33128       -8.17164
N         90.39590       33.59830       -7.30286
C         89.35047       32.58515       -7.42632
C         89.33650       31.70066       -6.19446
O         89.27931       32.21556       -5.08551
C         87.95628       33.22727       -7.62851
C         87.90800       34.02291       -8.93793
O         86.97657       32.22199       -7.71514
H         90.11393       34.57776       -7.19481
H         89.53299       31.96934       -8.33592
H         87.71958       33.91836       -6.78597
H         86.70261       31.99515       -6.78949
H         86.89257       34.44538       -9.08529
H         88.63813       34.85628       -8.93713
H         88.13438       33.35903       -9.79996
N         89.30850       30.34581       -6.32878
C         89.23091       29.44110       -5.18890
C         90.57607       29.40228       -4.49429
O         90.63732       29.70948       -3.31236
C         88.76283       28.01837       -5.63326
C         87.37489       28.04354       -6.33943
C         88.73943       27.03189       -4.44799
C         86.21224       28.55737       -5.48377
H         89.28461       29.95144       -7.28093
H         88.46881       29.81507       -4.47077
H         89.48960       27.61790       -6.37357
H         87.12557       27.01256       -6.67228
H         87.42457       28.67250       -7.25193
H         89.75410       26.91243       -4.01477
H         88.06185       27.38088       -3.64166
H         88.40524       26.02909       -4.79050
H         86.36701       29.61146       -5.17590
H         85.27799       28.51872       -6.08208
H         86.06407       27.92644       -4.58419
N         91.69258       29.00196       -5.16942
C         93.00390       28.87914       -4.53985
C         93.98941       28.25117       -5.51089
O         94.18182       28.77513       -6.59927
C         93.55706       30.24119       -4.02921
C         94.80712       30.03038       -3.16807
O         93.88332       31.09286       -5.09292
H         91.58828       28.73160       -6.16006
H         92.88373       28.21337       -3.65605
H         92.82313       30.74692       -3.36699
H         93.02833       31.32011       -5.53103
H         95.17772       31.00768       -2.79400
H         94.56150       29.39137       -2.29225
H         95.61948       29.54502       -3.74815
N         94.66008       27.12503       -5.15283
C         95.65594       26.45376       -5.98281
C         96.08359       25.19009       -5.25299
O         95.86093       24.09943       -5.75921
C         96.86206       27.39513       -6.31698
C         97.93337       26.69410       -7.15916
O         97.44315       27.90404       -5.14399
H         94.44495       26.72364       -4.22628
H         95.17729       26.15505       -6.94314
H         96.48231       28.24614       -6.92256
H         97.94977       28.72095       -5.39290
H         98.37725       25.83958       -6.60665
H         97.49553       26.32995       -8.11195
H         98.74725       27.41201       -7.40015
N         96.68594       25.28136       -4.03539
C         97.08694       24.14890       -3.22348
C         96.59892       24.36580       -1.80396
O         96.86628       25.41956       -1.24000
C         98.61591       24.02509       -3.27623
C         99.11122       22.84913       -2.42414
C        100.60008       22.58947       -2.64996
C        101.08520       21.44589       -1.75185
N        102.48713       21.13236       -2.01813
H         96.89199       26.21364       -3.65320
H         96.67886       23.19627       -3.63005
H         99.10526       24.96583       -2.93963
H         98.89406       23.84744       -4.33936
H         98.55120       21.92800       -2.69973
H         98.92497       23.07217       -1.35048
H        101.18591       23.50775       -2.42716
H        100.75506       22.31438       -3.71691
H        100.46945       20.53675       -1.93401
H        100.96606       21.74232       -0.68543
H        103.08362       21.97590       -1.85668
H        102.79341       20.36820       -1.37388
H        102.59571       20.80544       -3.00595
N         95.92776       23.38644       -1.13697
C         95.49139       23.56022        0.24055
C         94.36517       24.58873        0.32559
O         94.54456       25.55906        1.04734
C         95.15519       22.20485        0.90041
C         94.88731       22.35796        2.40737
C         94.66716       21.02370        3.05910
O         95.54562       20.17574        3.03804
O         93.50617       20.76328        3.68914
H         95.78163       22.47647       -1.60070
H         96.36497       23.93290        0.82553
H         96.04259       21.54506        0.77443
H         94.30195       21.70019        0.41643
H         93.99312       22.99796        2.56678
H         95.75970       22.84413        2.89712
N         93.18981       24.50856       -0.36955
C         92.84002       23.46613       -1.31274
H         91.84388       23.68249       -1.75401
H         93.57132       23.43007       -2.14511
H         92.76202       22.48399       -0.81611
H         92.50050       25.26624       -0.24235
Ca        82.32831       31.66234       -3.19815
O         79.68192       30.73061       -2.02688
H         79.71677       29.82888       -1.61997
H         78.96594       30.67058       -2.70792
O         83.57996       34.87326       -1.29850
H         83.11501       35.45137       -1.95350
H         83.54377       35.38289       -0.45171
O         80.70146       31.06323       -5.50149
H         79.75322       31.25789       -5.70611
H         80.66620       30.30997       -4.85931
O         82.71688       30.44853       -0.37420
H         83.07219       29.54749       -0.16923
H         81.78802       30.43428       -0.03215
O         85.11583       32.03426       -1.49468
H         85.27695       32.67308       -0.75587
H         85.94154       32.07235       -2.03941
O         83.44303       29.16862       -4.02951
H         83.76014       29.92403       -4.58665
H         84.12839       29.08116       -3.32035

Ca 1.0



