%chk=apoCaM-CA-Ng.loop3.water5.frame328.chk
%nprocshared=20
%mem=10GB
%nosave
#b3lyp/svp scf=(tight,noincore,xqc) Test 
#IOP(5/87=12) Density=Current Pop=(MK,readradii) iop(6/33=2) iop(6/42=6)

apoCaM-CA-Ng.loop3.water5.frame328 

   0  1 
C         74.04565       50.66617       65.46312
C         75.20705       50.14725       64.67017
O         75.03909       49.17527       63.94978
H         73.13583       50.05484       65.27454
H         74.28589       50.61448       66.54587
H         73.83561       51.71818       65.18099
N         76.42807       50.75601       64.75979
C         77.63550       50.30601       64.06422
C         78.15951       48.97091       64.59312
O         79.08422       48.43815       63.99609
C         77.42346       50.26698       62.52965
C         76.99522       51.60623       61.99950
O         77.78839       52.68237       62.16298
O         75.93244       51.72356       61.41069
H         76.50994       51.59453       65.35480
H         78.44900       51.04045       64.25572
H         76.67817       49.49496       62.24800
H         78.37657       49.99206       62.02916
N         77.65440       48.39049       65.72395
C         78.08608       47.08675       66.22713
C         76.94409       46.07621       66.18973
O         77.16491       44.92477       66.54123
C         78.71309       47.22452       67.63392
C         77.76739       47.74437       68.73410
C         78.52410       47.84833       70.07127
C         77.67857       48.41262       71.22626
N         76.56164       47.53737       71.58480
H         76.92153       48.87960       66.25417
H         78.88064       46.66864       65.57185
H         79.58178       47.91452       67.55306
H         79.10079       46.22872       67.94397
H         76.90888       47.04821       68.83324
H         77.38800       48.75268       68.46644
H         79.38973       48.53263       69.93015
H         78.91791       46.84992       70.36222
H         77.29821       49.42425       70.96283
H         78.34253       48.51973       72.11341
H         76.07933       47.93264       72.42435
H         75.86882       47.48268       70.80550
H         76.91426       46.58138       71.82092
N         75.70392       46.42601       65.74214
C         74.58692       45.50660       65.62090
C         74.90431       44.42520       64.59992
O         75.49595       44.72546       63.57146
C         73.32874       46.27819       65.17508
C         72.10905       45.42128       65.31303
O         71.70351       45.02883       66.53311
O         71.46700       45.09544       64.33398
H         75.52699       47.39435       65.46612
H         74.38179       45.06873       66.62363
H         73.46140       46.63643       64.12921
H         73.16939       47.17019       65.81960
N         74.47664       43.15081       64.79985
C         74.74313       42.04707       63.89275
C         74.31737       42.31484       62.46385
O         75.14531       42.14959       61.57887
H         73.92748       42.94488       65.64653
H         74.20272       41.14987       64.26496
H         75.83086       41.81447       63.90797
N         73.05343       42.72648       62.15637
C         72.59349       42.91675       60.77624
C         72.36385       44.38234       60.41108
O         72.02643       44.64242       59.26455
C         71.36203       42.01617       60.50846
C         70.12985       42.32821       61.32106
N         69.05391       41.51154       61.25379
O         70.09683       43.30286       62.05065
H         72.39917       42.90479       62.93217
H         73.37893       42.57234       60.06983
H         71.66260       40.97154       60.74174
H         71.08456       42.06113       59.43369
H         69.05946       40.67890       60.64798
H         68.22181       41.69478       61.83054
N         72.56655       45.39264       61.30568
C         72.46211       46.80905       60.97794
C         71.33717       47.49724       61.72241
O         71.30143       48.71924       61.72386
H         72.84000       45.16685       62.26939
H         72.31085       46.98732       59.89155
H         73.42760       47.28129       61.26115
N         70.34138       46.78036       62.31421
C         69.20555       47.37135       63.00699
C         68.15205       46.24413       63.23764
O         68.21333       45.71123       64.53335
C         69.66717       48.07112       64.31525
C         68.52624       48.46537       65.22551
C         67.56568       49.40932       64.83321
C         68.41074       47.85274       66.48830
C         66.50126       49.72432       65.68769
C         67.34610       48.16133       67.33317
C         66.38460       49.09792       66.93530
O         65.34668       49.39924       67.74111
H         70.35154       45.75900       62.20699
H         68.75840       48.12581       62.32423
H         70.29535       48.95744       64.08700
H         70.31148       47.35665       64.86163
H         67.63726       49.89388       63.86810
H         69.13689       47.11756       66.81400
H         65.76162       50.45076       65.37762
H         67.26886       47.66612       68.29346
H         65.22889       48.97689       68.60458
N         66.78249       46.68240       62.94073
C         65.91594       45.53499       62.61529
C         66.46370       44.73224       61.44065
O         66.65095       43.53686       61.59685
C         64.46442       46.01240       62.32644
C         63.92150       46.95867       63.43008
C         63.51662       44.81125       62.12067
C         63.89103       46.36145       64.84037
H         66.76970       47.33834       62.12706
H         65.86945       44.86593       63.50295
H         64.46545       46.60286       61.38266
H         62.89240       47.27628       63.15451
H         64.54755       47.87648       63.46241
H         62.49018       45.16548       61.88883
H         63.84842       44.17869       61.27439
H         63.48051       44.16462       63.02130
H         63.48674       47.11679       65.54590
H         63.23967       45.46564       64.88420
H         64.91258       46.09523       65.18203
N         66.75880       45.31790       60.24356
C         67.26414       44.54978       59.11038
C         66.20393       43.61101       58.55662
O         66.56986       42.59472       57.98382
C         67.78661       45.47346       57.99854
O         66.75679       46.29316       57.51506
H         66.64692       46.33706       60.14209
H         68.13890       43.95205       59.45538
H         68.20042       44.86452       57.16386
H         68.60668       46.09661       58.42653
H         67.19871       47.05355       57.05470
N         64.87063       43.90533       58.66635
C         63.78907       43.08259       58.12742
C         63.69006       41.69967       58.76639
O         62.88568       40.90615       58.29690
C         63.89942       42.98698       56.59875
H         64.59405       44.78309       59.12971
H         62.82351       43.59767       58.33307
H         63.92795       44.00729       56.16035
H         64.80283       42.43047       56.28065
H         63.00947       42.46453       56.18637
N         64.40965       41.35743       59.87482
C         64.32504       40.05241       60.51680
C         63.53534       40.18087       61.79801
O         63.87606       41.01121       62.62901
C         65.72965       39.51400       60.79359
H         65.00224       42.06291       60.33047
H         63.81667       39.31718       59.85511
H         66.28475       40.19633       61.47149
H         65.66396       38.51357       61.27337
H         66.29437       39.41428       59.84259
N         62.43832       39.39278       62.00399
C         61.55027       39.49487       63.15583
C         60.86306       40.84585       63.13967
O         60.96443       41.60659       64.09334
C         62.28018       39.19799       64.48852
C         62.85314       37.77510       64.52906
C         63.53649       37.51466       65.84106
O         63.08726       36.54083       66.65563
O         64.50514       38.17973       66.17321
H         62.19151       38.69145       61.28890
H         60.74422       38.73412       63.04798
H         61.54987       39.29852       65.32214
H         63.09240       39.93374       64.66226
H         63.58751       37.62803       63.70854
H         62.02379       37.04585       64.39726
N         60.12606       41.20243       62.05240
C         59.43443       42.46860       61.96780
H         58.68700       42.54566       62.78567
H         60.16171       43.30426       62.04444
H         58.90475       42.54383       60.99412
H         60.05126       40.55114       61.25551
Ca        69.07273       43.60666       64.54340
O         66.80624       41.83697       64.71271
H         66.61986       42.53553       64.03738
H         66.20672       41.08974       64.46780
O         70.92491       40.91357       64.10288
H         70.43056       40.33446       63.47051
H         70.94058       40.39791       64.94682
O         68.99960       41.15798       66.79867
H         68.12762       41.12462       67.26555
H         69.61191       40.64091       67.37994
O         68.93724       44.29953       67.63644
H         68.31614       43.69847       68.11897
H         69.25736       44.93256       68.32710
O         71.75762       42.28747       67.04641
H         72.24421       41.43573       66.91772
H         72.26150       42.75634       67.75805

Ca 1.0



