%chk=apoCaM-CA-Ng.loop1.water6.frame731.chk
%nprocshared=20
%mem=10GB
%nosave
#b3lyp/svp scf=(tight,noincore,xqc) Test 
#IOP(5/87=12) Density=Current Pop=(MK,readradii) iop(6/33=2) iop(6/42=6)

apoCaM-CA-Ng.loop1.water6.frame731 

   0  1 
C         62.86869       20.69982       11.01369
C         63.40027       21.93486       10.35107
O         62.64217       22.62979        9.68898
H         61.78582       20.57396       10.79789
H         63.41428       19.80853       10.63947
H         63.00560       20.77996       12.11236
N         64.71072       22.27837       10.49827
C         65.28801       23.47478        9.89682
C         65.07314       23.51141        8.34663
O         65.02725       22.26308        7.70138
C         66.68395       23.82510       10.53952
C         67.87484       22.88260       10.73403
O         68.00978       21.67041       10.16779
O         68.76728       23.25604       11.47911
H         65.31120       21.67386       11.08033
H         64.67637       24.34543       10.22318
H         66.41025       24.06531       11.59212
H         67.06340       24.76907       10.09597
N         65.87824       24.50746        7.62415
C         65.48882       24.63936        6.20451
C         66.72498       24.94800        5.39590
O         67.33687       25.98887        5.59573
C         64.42983       25.74012        5.94913
C         63.97874       25.70229        4.47119
C         63.12457       26.90560        4.06740
C         62.69040       26.76800        2.59770
N         61.97667       27.95772        2.13892
H         65.83969       25.43747        8.10267
H         65.06206       23.68061        5.83828
H         64.87338       26.73110        6.19327
H         63.54054       25.58856        6.59805
H         63.42050       24.75583        4.29658
H         64.86416       25.71046        3.79969
H         63.73795       27.82641        4.18527
H         62.22701       26.98403        4.71716
H         62.03338       25.87553        2.49244
H         63.58416       26.61817        1.95041
H         61.13565       28.13023        2.73505
H         62.61346       28.78707        2.17175
H         61.67064       27.80989        1.14970
N         67.13738       24.06869        4.44781
C         68.28972       24.28407        3.58510
C         67.87956       24.15037        2.11826
O         66.80900       23.62132        1.85021
C         69.38560       23.26828        3.99440
C         68.87155       21.85709        4.08037
O         68.88425       21.21580        5.26366
O         68.40990       21.30118        3.09861
H         66.61368       23.18568        4.34084
H         68.68930       25.31106        3.72692
H         69.74683       23.55569        5.00558
H         70.25761       23.28405        3.31792
N         68.66245       24.58390        1.08695
C         69.87650       25.37102        1.26199
C         70.75097       25.39070        0.02993
O         70.42143       24.78232       -0.97737
H         68.32588       24.39758        0.12932
H         70.51552       24.93560        2.04392
H         69.59967       26.40215        1.57216
N         71.93077       26.06687        0.06116
C         72.89704       25.99563       -1.02622
C         73.60510       24.64658       -0.97822
O         74.26326       24.36719        0.01514
C         73.93137       27.13445       -0.88678
C         74.91662       27.21503       -2.02700
O         74.87039       26.43672       -2.96739
O         75.85888       28.17589       -2.01340
H         72.15270       26.63048        0.89712
H         72.36456       26.15644       -1.99110
H         74.49258       27.01502        0.06607
H         73.38748       28.10265       -0.84755
N         73.52026       23.76306       -2.01233
C         74.25496       22.50530       -2.04800
C         73.38424       21.35421       -1.61391
O         73.10387       20.48115       -2.42217
H         72.94017       24.00347       -2.83036
H         75.15848       22.54128       -1.40184
H         74.61814       22.34698       -3.08738
N         72.92559       21.28975       -0.33169
C         72.02852       20.24972        0.15999
C         72.66190       19.52756        1.32721
O         73.08387       20.18042        2.27343
C         70.69640       20.88401        0.60890
C         70.03575       21.62962       -0.54596
O         69.81127       19.88373        1.04392
H         73.19713       22.03490        0.32758
H         71.78805       19.51435       -0.63885
H         70.87615       21.62492        1.42509
H         70.04179       19.68090        1.98698
H         69.81811       20.93792       -1.38579
H         69.08897       22.09355       -0.20252
H         70.71155       22.42108       -0.91650
N         72.70349       18.16341        1.35772
C         73.26681       17.44467        2.49730
C         74.78831       17.58845        2.48722
O         75.42086       17.30205        3.49418
C         72.84372       15.93289        2.51970
C         71.33416       15.69237        2.22239
C         73.20898       15.26209        3.86309
C         70.36100       16.44153        3.13348
H         72.29528       17.64369        0.57004
H         72.84509       17.91717        3.41327
H         73.39544       15.39928        1.71361
H         71.12246       14.60238        2.28759
H         71.10207       15.97682        1.17715
H         72.70249       15.76775        4.71225
H         72.90361       14.19422        3.85698
H         74.29803       15.27356        4.05390
H         69.32143       16.20284        2.82336
H         70.48528       16.14303        4.19270
H         70.50128       17.53682        3.03823
N         75.44540       17.98368        1.35376
C         76.89451       18.05146        1.23439
C         77.36392       17.03278        0.21220
O         76.53557       16.37217       -0.40438
C         77.34584       19.49095        0.87191
C         76.86793       19.95003       -0.51280
O         76.86712       20.39513        1.83326
H         74.90748       18.18940        0.50087
H         77.37038       17.78166        2.20280
H         78.45900       19.53573        0.84828
H         77.40738       20.25562        2.65423
H         75.76165       19.97099       -0.57410
H         77.24120       20.97611       -0.71437
H         77.26227       19.28095       -1.30682
N         78.69252       16.82511        0.00991
C         79.20673       15.82009       -0.90822
C         79.84581       14.71956       -0.08735
O         79.38962       13.58875       -0.18076
C         80.13932       16.46804       -1.96237
C         80.60257       15.45945       -3.01724
O         81.26705       17.05266       -1.36294
H         79.36726       17.36750        0.57091
H         78.37110       15.35666       -1.48128
H         79.55630       17.24430       -2.51476
H         81.04214       18.00118       -1.17511
H         81.19360       14.64327       -2.55753
H         79.72766       15.01526       -3.53799
H         81.23708       15.97006       -3.77277
N         80.87319       14.98174        0.77334
C         81.46282       13.96356        1.63517
C         81.36290       14.36813        3.09559
O         81.05914       15.51301        3.40059
C         82.94486       13.76804        1.26409
C         83.11090       13.25441       -0.17489
C         84.57316       13.21325       -0.64157
C         85.46070       12.26587        0.17823
N         86.82065       12.24313       -0.35966
H         81.25061       15.93811        0.83384
H         80.92648       12.99617        1.51994
H         83.40647       13.03922        1.96262
H         83.46881       14.74403        1.37251
H         82.58374       13.94145       -0.86559
H         82.64975       12.24661       -0.26657
H         84.99583       14.24123       -0.60405
H         84.57844       12.87632       -1.70129
H         85.03533       11.23855        0.14751
H         85.50339       12.60098        1.23660
H         87.23803       13.20176       -0.32129
H         87.40681       11.59589        0.21501
H         86.81072       11.90354       -1.34893
N         81.62147       13.43919        4.05873
C         81.67455       13.72682        5.48839
C         80.42496       14.44134        6.00540
O         80.59498       15.52805        6.54083
C         81.99473       12.43112        6.27612
C         82.20369       12.67079        7.77992
C         82.57763       11.41213        8.52232
O         82.79535       11.46991        9.84935
O         82.68941       10.34108        7.94448
H         81.81978       12.47476        3.74925
H         82.53683       14.41360        5.65037
H         82.93410       12.00306        5.86000
H         81.19332       11.67700        6.14532
H         81.26865       13.07089        8.22621
H         83.01692       13.41394        7.92227
N         79.14839       13.96441        5.92170
C         78.73010       12.73624        5.28249
H         77.98740       12.97885        4.49396
H         79.55400       12.18724        4.80030
H         78.24739       12.07943        6.03599
H         78.39599       14.53587        6.33785
Ca        66.82036       21.21009        8.40943
O         65.91526       18.39879        8.69959
H         66.02366       17.80088        9.48071
H         64.94385       18.38865        8.50941
O         65.76574       19.76562        5.92157
H         64.79916       19.58546        6.03978
H         65.91686       19.69361        4.94612
O         69.11036       18.48238        6.32428
H         68.65399       17.98726        5.59857
H         69.93880       18.82741        5.90541
O         70.58933       20.82865        8.12239
H         71.14735       21.57150        7.78113
H         71.12510       20.43389        8.85540
O         68.97296       23.53665        7.73480
H         69.89005       23.70492        8.06602
H         68.60272       24.44042        7.58009
O         68.92763       18.72110        9.58637
H         68.43747       18.29468       10.33319
H         69.65643       18.08625        9.37163

Ca 1.0



