%chk=apoCaM-CA-Ng.loop2.water4.frame673.chk
%nprocshared=20
%mem=10GB
%nosave
#b3lyp/svp scf=(tight,noincore,xqc) Test 
#IOP(5/87=12) Density=Current Pop=(MK,readradii) iop(6/33=2) iop(6/42=6)

apoCaM-CA-Ng.loop2.water4.frame673 

   -2  1 
C        -14.49490       47.29340       76.61288
C        -15.96985       47.15087       76.37608
O        -16.49204       47.82748       75.50196
H        -13.94423       47.02986       75.68545
H        -14.26209       48.34274       76.88948
H        -14.14767       46.62610       77.42969
N        -16.70694       46.27552       77.11573
C        -18.13540       46.06640       76.92902
C        -18.34691       44.63351       76.48042
O        -19.00636       43.86449       77.16761
C        -18.86668       46.41720       78.24438
C        -20.36089       46.28391       78.12662
O        -21.02732       45.43148       78.92886
O        -20.97726       46.95250       77.31228
H        -16.23270       45.71339       77.84011
H        -18.53584       46.72923       76.13059
H        -18.63586       47.46942       78.51817
H        -18.49735       45.76013       79.06281
N        -17.77660       44.20720       75.31601
C        -17.88623       42.83884       74.82466
C        -16.50918       42.18560       74.78598
O        -15.52363       42.90600       74.85859
C        -18.53390       42.85859       73.43484
H        -17.22245       44.87965       74.76234
H        -18.52174       42.25592       75.52245
H        -19.54263       43.31905       73.50135
H        -17.91653       43.45970       72.73321
H        -18.64489       41.84292       73.00718
N        -16.32078       40.82975       74.76071
C        -17.39213       39.83572       74.76381
C        -17.53587       39.19403       76.12839
O        -16.61216       39.25039       76.92875
C        -17.19745       38.79180       73.64402
C        -15.96059       37.92974       73.77213
O        -15.73239       37.08600       72.92085
O        -15.10826       38.05883       74.80772
H        -15.34874       40.49214       74.81687
H        -18.36051       40.32536       74.57143
H        -17.15320       39.32695       72.67096
H        -18.08018       38.11665       73.62736
N        -18.73365       38.65020       76.49227
C        -18.99553       38.08980       77.80747
C        -18.68091       39.11167       78.89056
O        -19.22382       40.20469       78.81873
H        -19.51418       38.67135       75.81830
H        -18.41502       37.15650       77.90511
H        -20.06827       37.80811       77.87301
N        -17.78387       38.88577       79.89895
C        -17.15545       37.59659       80.16220
C        -15.97305       37.74081       81.10565
O        -16.13657       38.21355       82.22279
C        -18.19884       36.63330       80.77437
C        -17.61295       35.27515       81.07288
N        -17.57691       34.80255       82.34149
O        -17.16582       34.59661       80.16043
H        -17.55994       39.67585       80.52502
H        -16.75515       37.18125       79.21557
H        -19.05748       36.49627       80.08587
H        -18.59592       37.08820       81.70906
H        -17.94587       35.36006       83.12598
H        -17.17444       33.87554       82.54356
N        -14.74622       37.29268       80.71487
C        -13.59957       37.30164       81.60882
C        -12.32047       36.71118       81.02849
O        -11.44185       36.41334       81.82531
H        -14.67202       36.87876       79.77964
H        -13.87573       36.68231       82.49035
H        -13.38470       38.33227       81.96548
N        -12.09749       36.55773       79.68579
C        -10.87130       35.98584       79.13486
C        -10.05661       37.09032       78.48413
O        -10.56058       38.19530       78.32603
C        -11.25685       34.83033       78.17003
C        -10.07779       34.14831       77.47282
O        -11.95960       33.84818       78.88950
H        -12.78198       36.89642       78.99940
H        -10.23967       35.57885       79.95449
H        -11.90077       35.23939       77.35604
H        -12.92650       34.06254       78.81799
H         -9.54872       34.85376       76.80068
H         -9.37080       33.72900       78.21932
H        -10.45308       33.32002       76.83462
N         -8.74179       36.88592       78.18015
C         -7.86519       37.93506       77.68065
C         -7.30937       37.52028       76.33015
O         -6.58479       36.53620       76.26770
C         -6.74201       38.20648       78.72960
C         -5.71623       39.25649       78.22589
C         -7.37838       38.65327       80.06444
C         -4.52282       39.44165       79.16690
H         -8.31827       35.96645       78.37416
H         -8.44031       38.86558       77.55154
H         -6.19761       37.25097       78.90190
H         -6.20827       40.23845       78.07558
H         -5.29888       38.92214       77.25263
H         -8.09429       37.89299       80.43977
H         -6.61846       38.77632       80.86008
H         -7.92170       39.61377       79.93262
H         -3.80386       40.15588       78.71385
H         -4.83236       39.85940       80.14547
H         -4.00505       38.47176       79.32650
N         -7.62498       38.22536       75.20059
C         -7.12740       37.88467       73.87321
C         -6.39191       39.04197       73.19695
O         -5.84296       38.81409       72.12699
C         -8.29266       37.45142       72.95412
C         -9.09673       36.31675       73.52787
O         -9.97579       36.52272       74.53070
O         -9.00394       35.20163       73.04106
H         -8.27607       39.01422       75.27580
H         -6.41358       37.03515       73.94966
H         -7.84788       37.11920       71.98941
H         -8.97894       38.29916       72.73538
N         -6.38583       40.31440       73.69971
C         -5.83267       41.44215       72.95769
C         -6.56192       42.73264       73.34284
O         -5.92348       43.67461       73.79225
C         -4.29659       41.49439       73.13774
C         -3.64746       42.57875       72.30307
C         -2.91298       43.60786       72.91949
C         -3.76476       42.56990       70.90047
C         -2.31608       44.61048       72.14797
C         -3.16850       43.57597       70.13405
C         -2.44545       44.59572       70.75698
H         -6.89407       40.52235       74.56534
H         -6.04320       41.29953       71.87701
H         -3.85582       40.52207       72.82983
H         -4.06953       41.63872       74.21709
H         -2.80293       43.63701       73.99626
H         -4.31763       41.78726       70.39740
H         -1.75328       45.40021       72.62872
H         -3.26693       43.56463       69.05607
H         -1.98432       45.37334       70.16158
N         -7.91678       42.86390       73.15519
C         -8.66486       44.10373       73.35239
C         -8.65720       44.70771       74.74904
O         -9.22723       45.77875       74.90803
C        -10.10790       43.70705       73.00482
C         -9.89999       42.64944       71.94819
C         -8.75452       41.84502       72.54771
H         -8.25904       44.84144       72.62455
H        -10.56725       43.18440       73.87752
H        -10.76626       44.55317       72.71497
H        -10.79719       42.04742       71.69132
H         -9.53163       43.16033       71.02919
H         -9.10999       41.15571       73.34579
H         -8.26794       41.27736       71.72809
N         -8.09909       44.07365       75.81723
C         -8.16763       44.61505       77.16906
C         -7.06605       45.63193       77.34143
O         -7.35425       46.78533       77.62879
C         -8.04701       43.51308       78.25090
C         -9.20572       42.49628       78.24991
C         -9.22088       41.66671       77.00662
O        -10.20268       41.63052       76.28609
O         -8.11640       40.99464       76.65601
H         -7.65195       43.16223       75.67620
H         -9.16036       45.09371       77.33486
H         -8.06167       44.01016       79.24602
H         -7.07959       42.97258       78.16035
H        -10.17912       43.01795       78.38077
H         -9.06402       41.80675       79.10924
N         -5.76532       45.26545       77.17301
C         -4.67326       46.19809       77.33122
H         -3.70803       45.68283       77.13884
H         -4.78155       47.03427       76.60883
H         -4.66412       46.59678       78.36769
H         -5.53936       44.29142       76.91947
Ca       -10.71704       38.56589       75.18551
O        -12.89524       42.17437       75.75888
H        -13.56797       41.54754       76.12324
H        -12.60487       42.70410       76.54320
O        -12.64949       39.94257       72.80010
H        -12.98469       40.86040       72.96049
H        -13.46293       39.41154       72.60847
O        -12.87582       36.01182       74.94041
H        -13.77372       35.68137       74.68828
H        -12.28697       35.22312       74.83500
O        -13.51095       39.41412       77.87021
H        -14.15745       38.66988       77.95740
H        -14.00682       40.20960       78.18890

Ca 1.0



