%chk=apoCaM-CA-Ng.loop3.water4.frame156.chk
%nprocshared=20
%mem=10GB
%nosave
#b3lyp/svp scf=(tight,noincore,xqc) Test 
#IOP(5/87=12) Density=Current Pop=(MK,readradii) iop(6/33=2) iop(6/42=6)

apoCaM-CA-Ng.loop3.water4.frame156 

   0  1 
C         54.62702       47.65208       64.50325
C         54.61398       46.56551       65.54151
O         53.56967       45.96919       65.75791
H         55.63836       48.09884       64.39425
H         54.32644       47.22937       63.52141
H         53.91840       48.45667       64.78464
N         55.75461       46.25005       66.21921
C         55.87610       45.18366       67.20842
C         54.99845       45.44924       68.43147
O         54.21318       44.59647       68.82207
C         55.63009       43.81314       66.52870
C         55.95016       42.65222       67.42676
O         57.19673       42.49706       67.91188
O         55.08919       41.83126       67.70023
H         56.61092       46.78650       66.00981
H         56.93081       45.19278       67.56517
H         56.28671       43.73328       65.63505
H         54.57674       43.73837       66.18348
N         55.08943       46.64449       69.08279
C         54.30704       46.99227       70.26963
C         53.03134       47.73486       69.91933
O         52.34169       48.16382       70.83577
C         55.15870       47.85948       71.22425
C         56.36222       47.13528       71.84298
C         55.92957       45.99814       72.78314
C         57.12721       45.41276       73.53721
N         56.69844       44.34786       74.44377
H         55.70459       47.36950       68.68143
H         53.96254       46.08188       70.80219
H         54.53179       48.22352       72.06846
H         55.51531       48.75512       70.66890
H         56.91585       47.88976       72.44394
H         57.04224       46.75357       71.05118
H         55.43614       45.18856       72.20601
H         55.20825       46.39772       73.53024
H         57.61704       46.21849       74.12879
H         57.86585       45.00733       72.81134
H         56.00673       44.71944       75.13541
H         56.26624       43.56577       73.90022
H         57.53001       43.98347       74.96177
N         52.60726       47.87412       68.63414
C         51.36103       48.53980       68.28973
C         50.18196       47.89105       69.00243
O         50.07803       46.67184       69.01153
C         51.12576       48.47094       66.78195
C         49.95720       49.32987       66.41385
O         50.03284       50.54562       66.48431
O         48.84423       48.76169       65.94557
H         53.17038       47.47662       67.87110
H         51.44640       49.61245       68.57579
H         50.94759       47.41090       66.48797
H         52.01010       48.83587       66.21749
N         49.23800       48.67039       69.59588
C         48.10728       48.15404       70.34640
C         47.24030       47.19240       69.56266
O         47.03005       46.08661       70.04175
H         49.32636       49.69548       69.52182
H         47.47884       49.01132       70.67098
H         48.48330       47.64609       71.26155
N         46.69439       47.53558       68.35992
C         45.77918       46.65145       67.63295
C         46.47305       45.76084       66.60966
O         45.78917       44.95124       65.99766
C         44.59522       47.44552       67.03854
C         44.94514       48.43138       65.95060
N         43.96577       49.17448       65.38982
O         46.09627       48.56631       65.56752
H         46.93137       48.45528       67.95991
H         45.31556       45.94557       68.35837
H         44.09580       47.99809       67.86364
H         43.85928       46.72635       66.61689
H         42.98659       49.07057       65.69243
H         44.18474       49.85817       64.65446
N         47.82349       45.78317       66.42177
C         48.50877       44.81505       65.58350
C         48.19731       44.95151       64.10928
O         47.64895       44.01881       63.53920
H         48.40575       46.43636       66.96119
H         48.24369       43.79421       65.93985
H         49.60743       44.92769       65.70917
N         48.61467       46.04966       63.41076
C         48.54417       46.15318       61.95079
C         47.67309       47.34242       61.43422
O         48.23557       48.60928       61.64917
C         49.96318       46.21201       61.34679
C         50.78824       44.99217       61.68780
C         51.03151       44.01994       60.70418
C         51.32868       44.81207       62.97501
C         51.78863       42.88489       61.00207
C         52.09260       43.67869       63.26901
C         52.32334       42.70981       62.28194
O         53.05776       41.61137       62.54889
H         49.10933       46.77302       63.93897
H         48.05945       45.23464       61.55233
H         50.50519       47.12969       61.66245
H         49.84657       46.26548       60.24322
H         50.62450       44.13377       59.70716
H         51.17292       45.55022       63.75044
H         51.95965       42.14119       60.23443
H         52.50575       43.55577       64.26251
H         53.45281       41.45494       63.41829
N         47.47321       47.21698       59.98232
C         46.50807       48.20612       59.46976
C         45.14059       47.92185       60.05989
O         44.63732       48.78797       60.75505
C         46.59133       48.27429       57.92028
C         48.03385       48.63342       57.44697
C         45.58755       49.27892       57.32856
C         48.55135       50.01539       57.88660
H         47.17557       46.24908       59.72028
H         46.78752       49.22151       59.82257
H         46.34564       47.27065       57.50815
H         48.06242       48.60039       56.33640
H         48.74757       47.86604       57.81573
H         45.69023       49.31750       56.22311
H         44.55380       48.97572       57.54659
H         45.73299       50.29703       57.74373
H         47.91142       50.83230       57.49484
H         48.61821       50.10130       58.98995
H         49.57322       50.17254       57.48329
N         44.52345       46.71173       59.92874
C         43.31435       46.39698       60.68860
C         42.10042       47.20787       60.25450
O         41.10113       47.15873       60.95831
C         43.01378       44.88990       60.64608
O         44.11687       44.15297       61.10633
H         44.97644       45.97350       59.37011
H         43.52136       46.64997       61.75425
H         42.79112       44.57868       59.60419
H         42.12210       44.64581       61.26740
H         44.20130       44.33585       62.07935
N         42.11647       48.00158       59.13902
C         41.02419       48.87693       58.72528
C         40.76629       50.00878       59.72412
O         39.78370       50.71649       59.56211
C         39.76643       48.05534       58.40254
H         42.94606       47.99650       58.54009
H         41.30866       49.37360       57.77091
H         40.01392       47.29872       57.62581
H         39.35730       47.53471       59.28973
H         38.97448       48.71540       57.98948
N         41.63425       50.26671       60.75115
C         41.45949       51.32510       61.73741
C         42.65623       52.26891       61.75824
O         43.62392       52.04419       61.04602
C         41.30602       50.66545       63.10737
H         42.46993       49.68993       60.86097
H         40.54680       51.91927       61.51763
H         41.15695       51.41957       63.90662
H         40.43203       49.98120       63.09575
H         42.21335       50.06843       63.33839
N         42.62750       53.37897       62.55726
C         43.71041       54.35395       62.68248
C         44.14943       54.83505       61.30926
O         45.32743       54.75654       60.98306
C         44.89104       53.79011       63.51253
C         44.45270       53.32060       64.90963
C         45.62182       52.82084       65.71137
O         45.94634       53.41678       66.87486
O         46.27355       51.86470       65.32292
H         41.76608       53.57316       63.08888
H         43.31490       55.23004       63.24519
H         45.65446       54.59190       63.63491
H         45.36374       52.94756       62.97099
H         43.71051       52.49896       64.82023
H         43.97913       54.16860       65.45066
N         43.22288       55.30253       60.42893
C         43.54264       55.69660       59.07194
H         44.62668       55.60767       58.84681
H         42.99146       55.03942       58.36637
H         43.23176       56.74781       58.90704
H         42.23386       55.34618       60.71767
Ca        48.64983       49.04142       63.78224
O         50.96352       50.44699       62.74077
H         51.04480       49.71144       62.08273
H         51.59907       50.20742       63.46126
O         47.97570       52.02268       61.56128
H         48.77947       52.30503       61.05774
H         47.21474       52.39489       61.04843
O         49.03600       52.85237       64.40938
H         48.79506       53.28048       65.26913
H         49.33846       53.60069       63.83601
O         45.96159       50.36620       62.73550
H         45.02527       50.66907       62.64360
H         45.88535       49.40389       62.94975

Ca 1.0



