%chk=apoCaM-CA-Ng.loop2.water2.frame834.chk
%nprocshared=20
%mem=10GB
%nosave
#b3lyp/svp scf=(tight,noincore,xqc) Test 
#IOP(5/87=12) Density=Current Pop=(MK,readradii) iop(6/33=2) iop(6/42=6)

apoCaM-CA-Ng.loop2.water2.frame834 

   -2  1 
C         63.10796       71.57430       85.82413
C         62.42649       70.59692       84.91611
O         62.10206       69.49934       85.34815
H         64.10259       71.83973       85.40984
H         62.48871       72.49270       85.90606
H         63.24124       71.14244       86.83866
N         62.16774       70.93952       83.62322
C         61.50032       70.04515       82.68257
C         60.01452       69.84673       83.01312
O         59.35784       69.12430       82.27590
C         61.66623       70.59508       81.24521
C         61.27042       69.58770       80.19761
O         61.91004       68.40338       80.12768
O         60.38282       69.84111       79.39950
H         62.49794       71.85964       83.29076
H         62.02799       69.06538       82.71464
H         62.73818       70.82817       81.06642
H         61.08227       71.53541       81.13147
N         59.41407       70.42591       84.10141
C         57.99815       70.25689       84.41374
C         57.36959       71.58019       84.85602
O         58.11162       72.50431       85.15915
C         57.87691       69.24627       85.55718
H         59.97194       70.97237       84.76722
H         57.48100       69.86318       83.51664
H         58.40034       69.62523       86.46260
H         56.81994       69.05227       85.81477
H         58.34041       68.28205       85.26036
N         56.02102       71.78255       84.96592
C         54.97867       70.88724       84.46936
C         54.21006       71.59902       83.35983
O         54.41978       72.78847       83.16113
C         54.08645       70.34100       85.60850
C         53.43891       71.35965       86.50927
O         54.11492       72.08964       87.21609
O         52.09824       71.39305       86.60271
H         55.71349       72.69281       85.34313
H         55.42674       69.99939       83.98945
H         54.69990       69.69186       86.26569
H         53.29985       69.69753       85.15763
N         53.40259       70.90402       82.50668
C         52.83777       71.51443       81.30827
C         51.43010       71.05117       81.02016
O         51.25325       70.38709       80.00817
H         53.32147       69.88181       82.62157
H         53.47125       71.18209       80.45562
H         52.88054       72.62284       81.32762
N         50.35400       71.31809       81.81045
C         50.36998       72.07914       83.05326
C         50.31623       73.57840       82.75803
O         49.32283       74.03781       82.21095
C         49.14438       71.61471       83.87595
C         49.00155       72.17087       85.25688
N         47.94390       71.78966       86.00877
O         49.82354       72.94806       85.70702
H         49.45858       70.89259       81.51753
H         51.27568       71.80995       83.63648
H         49.20669       70.50951       83.98730
H         48.21640       71.85573       83.31299
H         47.24842       71.12774       85.63588
H         47.80732       72.14877       86.95954
N         51.36570       74.39757       83.06257
C         51.38613       75.82501       82.75445
C         50.60731       76.69290       83.73194
O         50.53860       77.89206       83.50388
H         52.21985       73.97867       83.45027
H         51.02406       75.98056       81.71408
H         52.43627       76.18670       82.79276
N         50.02776       76.17649       84.85152
C         49.28094       76.95440       85.83644
C         49.92718       76.81812       87.20619
O         50.15604       75.70151       87.65058
C         47.81352       76.47227       85.89384
C         47.07981       76.75645       84.58362
O         47.74568       75.09451       86.15991
H         50.11680       75.17319       85.02754
H         49.25344       78.03325       85.56589
H         47.27554       77.05033       86.68464
H         47.59736       74.99038       87.13426
H         47.55539       76.21592       83.73838
H         46.02302       76.42602       84.66872
H         47.08990       77.84683       84.36960
N         50.21675       77.92578       87.95113
C         50.79178       77.84892       89.29505
C         49.82238       77.09841       90.19533
O         48.70219       77.56414       90.35819
C         51.05569       79.27209       89.90010
C         51.65331       79.21552       91.33824
C         51.94236       80.15249       88.99658
C         53.06322       78.62244       91.43055
H         49.98696       78.84603       87.55230
H         51.76086       77.30995       89.22494
H         50.07436       79.79152       89.98611
H         50.98238       78.63267       92.00526
H         51.69463       80.24829       91.74842
H         52.92762       79.68004       88.81159
H         51.47055       80.34669       88.01459
H         52.09639       81.14462       89.47336
H         53.07925       77.57601       91.07155
H         53.79134       79.22481       90.85020
H         53.39797       78.63486       92.48782
N         50.18545       75.93705       90.81456
C         49.28327       75.20104       91.69822
C         49.77337       75.15648       93.13075
O         48.99440       74.73506       93.97736
C         49.05440       73.78240       91.16119
C         48.32138       73.82650       89.85924
O         47.20087       74.31019       89.81566
O         48.84424       73.30506       88.73794
H         51.13166       75.56100       90.65273
H         48.29864       75.71724       91.75694
H         48.42214       73.20249       91.86932
H         50.02660       73.25721       91.04874
N         51.01388       75.58320       93.50600
C         51.39207       75.68869       94.90842
C         52.88756       75.96439       95.05674
O         53.34856       76.97555       94.54382
C         50.60403       76.85857       95.54826
C         51.03902       77.12756       96.96712
C         51.73758       78.30981       97.26612
C         50.77830       76.20375       97.99165
C         52.17928       78.55846       98.56621
C         51.21633       76.46036       99.29527
C         51.91917       77.63495       99.58097
H         51.69852       75.86596       92.79086
H         51.13159       74.74302       95.42469
H         49.50791       76.68170       95.52679
H         50.79680       77.76109       94.92596
H         51.95635       79.03167       96.48860
H         50.23999       75.28796       97.78077
H         52.72716       79.46607       98.78345
H         51.01538       75.74720      100.08376
H         52.26391       77.83029      100.58764
N         53.70474       75.15577       95.80291
C         55.08323       75.48419       96.13501
C         56.07142       75.17125       95.02027
O         57.26371       75.28642       95.26927
C         55.33179       74.63748       97.38803
C         54.56061       73.37692       97.07282
C         53.27356       73.95059       96.49094
H         55.20171       76.55107       96.42880
H         56.39741       74.50234       97.66956
H         54.81044       75.12793       98.24405
H         55.11369       72.84272       96.26767
H         54.40611       72.68169       97.92509
H         52.80818       73.20059       95.81523
H         52.56790       74.23812       97.29804
N         55.67215       74.80404       93.76681
C         56.61726       74.50600       92.69007
C         57.54596       75.67008       92.34407
O         58.48253       75.44552       91.58944
C         55.85853       74.03891       91.42501
C         55.00296       75.16054       90.80218
C         54.16283       74.63972       89.67735
O         53.23115       73.69685       89.91405
O         54.29838       75.08628       88.55095
H         54.66723       74.70275       93.57565
H         57.25069       73.66242       93.04519
H         55.20885       73.18303       91.71252
H         56.58107       73.67348       90.66140
H         55.66898       75.97084       90.43065
H         54.31611       75.59609       91.55393
N         57.35141       76.93092       92.83381
C         58.23381       78.04414       92.54834
H         59.09190       77.75565       91.90602
H         57.66180       78.84542       92.03637
H         58.63503       78.44388       93.50363
H         56.53997       77.13733       93.43143
Ca        50.87490       72.47189       88.18502
O         51.70311       70.82888       90.68470
H         51.77956       71.46654       91.43829
H         52.57687       70.88558       90.22215
O         53.19857       74.89429       85.82025
H         53.78145       75.67681       85.98591
H         53.76652       74.27526       85.29801

Ca 1.0



