%chk=apoCaM-CA-Ng.loop1.water1.frame798.chk
%nprocshared=20
%mem=10GB
%nosave
#b3lyp/svp scf=(tight,noincore,xqc) Test 
#IOP(5/87=12) Density=Current Pop=(MK,readradii) iop(6/33=2) iop(6/42=6)

apoCaM-CA-Ng.loop1.water1.frame798 

   0  1 
C         39.18338       74.07689       84.04985
C         39.33239       74.92469       85.27737
O         40.39767       74.93630       85.87690
H         38.91298       74.71551       83.18369
H         40.12481       73.53345       83.82519
H         38.37493       73.33252       84.21702
N         38.26536       75.63545       85.73061
C         38.28837       76.41966       86.96595
C         36.87933       76.78272       87.41791
O         35.92818       76.57048       86.67734
C         39.21180       77.65931       86.84295
C         38.82531       78.63516       85.75809
O         37.84897       78.44891       85.04886
O         39.58357       79.73041       85.56032
H         37.38901       75.54332       85.19551
H         38.68147       75.75643       87.76830
H         40.24822       77.32300       86.63354
H         39.23351       78.20248       87.81159
N         36.66577       77.25107       88.68083
C         35.32852       77.42831       89.22982
C         35.10562       78.86272       89.65513
O         35.84570       79.38576       90.47651
C         35.10507       76.41146       90.36536
C         33.67687       76.48933       90.94381
C         33.34124       75.32818       91.89707
C         33.17073       73.98680       91.15640
N         32.77611       72.92174       92.07753
H         37.47351       77.40679       89.30412
H         34.56370       77.17204       88.46552
H         35.84774       76.54658       91.18210
H         35.26926       75.41219       89.91328
H         32.92120       76.49518       90.12749
H         33.58535       77.44812       91.49901
H         32.37055       75.55842       92.38406
H         34.11462       75.24902       92.69129
H         34.11192       73.68805       90.65102
H         32.38060       74.10027       90.37978
H         32.63392       72.03797       91.53632
H         33.52725       72.76694       92.78817
H         31.87962       73.16945       92.55608
N         34.04051       79.53804       89.14141
C         33.67801       80.90254       89.50918
C         32.20231       81.18892       89.18270
O         31.60390       80.42566       88.43760
C         34.65090       81.92230       88.85623
C         34.93181       81.74940       87.35370
O         33.76726       81.59835       86.59126
O         35.75531       80.64439       87.10576
H         33.42624       79.01846       88.50056
H         33.75197       80.97524       90.60797
H         35.63645       81.86751       89.36281
H         34.28173       82.94954       89.00211
N         31.49150       82.23410       89.71124
C         31.95360       83.22485       90.67481
C         32.26077       82.67174       92.05131
O         32.12404       81.48185       92.29291
H         30.51499       82.34126       89.39662
H         31.14414       83.97362       90.81795
H         32.82460       83.77241       90.28086
N         32.70152       83.52805       93.01701
C         33.07070       83.11227       94.37111
C         31.89606       82.62955       95.22629
O         32.14612       82.13470       96.31659
C         33.81778       84.26139       95.09364
C         33.01211       85.52404       95.30212
O         33.59438       86.58310       95.89501
O         31.84940       85.60945       94.93788
H         32.83952       84.51373       92.74480
H         33.79180       82.27015       94.27292
H         34.71356       84.52516       94.49017
H         34.17185       83.90531       96.08482
N         30.60109       82.75564       94.81961
C         29.45065       82.30851       95.59611
C         28.62491       81.29532       94.82768
O         27.49985       81.02955       95.22600
H         30.39548       83.20364       93.91532
H         28.81859       83.20332       95.78103
H         29.72899       81.88004       96.58320
N         29.12207       80.69517       93.71071
C         28.37191       79.82323       92.81739
C         28.39756       80.43460       91.42297
O         28.95176       81.51564       91.26245
C         28.96581       78.39324       92.83900
C         30.41269       78.31416       92.33530
O         28.89918       77.89491       94.15119
H         30.09395       80.88249       93.44537
H         27.31010       79.74441       93.14092
H         28.33637       77.76032       92.17146
H         28.76169       76.91351       94.08750
H         30.74029       77.25575       92.34048
H         30.49029       78.69238       91.29409
H         31.10003       78.89039       92.98726
N         27.82913       79.80713       90.35308
C         27.85830       80.40565       89.01713
C         27.01642       81.68645       89.01909
O         27.26067       82.56823       88.20980
C         27.40904       79.40209       87.91173
C         28.25553       78.09523       87.97426
C         27.54269       80.04268       86.51171
C         27.73346       76.98960       87.05488
H         27.36494       78.90091       90.50137
H         28.91832       80.66728       88.80348
H         26.34305       79.14589       88.09890
H         28.22857       77.65911       88.99129
H         29.32014       78.31327       87.73733
H         27.19094       79.36240       85.71369
H         26.92272       80.95452       86.41832
H         28.60394       80.31006       86.31033
H         28.34344       76.07319       87.19938
H         26.67830       76.75247       87.31119
H         27.79956       77.27066       85.98644
N         26.06258       81.87361       89.97884
C         25.31188       83.10519       90.18544
C         23.81564       82.78221       90.26041
O         23.45677       81.61524       90.19944
C         25.89845       83.73074       91.48573
C         25.33362       85.08477       91.90848
O         25.77039       82.82786       92.55638
H         25.89275       81.12604       90.66558
H         25.48179       83.81512       89.34649
H         26.98059       83.89762       91.25747
H         26.58459       82.92145       93.11717
H         25.38928       85.81018       91.06994
H         24.29555       84.98580       92.27961
H         25.93386       85.47770       92.75607
N         22.88630       83.77157       90.41600
C         21.46365       83.50780       90.64226
C         20.56084       84.20423       89.62226
O         19.36670       83.93589       89.63886
C         21.14632       83.94959       92.09691
C         19.72709       83.62830       92.57327
O         21.37893       85.33002       92.23633
H         23.20314       84.74757       90.44295
H         21.26420       82.41731       90.56337
H         21.84387       83.37183       92.75230
H         21.83878       85.46801       93.10556
H         18.96779       84.21207       92.01591
H         19.51976       82.54317       92.46633
H         19.63104       83.90218       93.64570
N         21.03573       85.11029       88.71965
C         20.18734       85.87992       87.80737
C         21.07863       86.75262       86.94338
O         21.83375       87.54813       87.49048
C         19.18267       86.75428       88.60507
C         18.30736       87.64826       87.71122
C         17.27951       88.41457       88.55597
C         16.47843       89.40424       87.70060
N         15.48959       90.11413       88.51224
H         22.04848       85.29432       88.69170
H         19.61318       85.18114       87.15866
H         19.73905       87.39789       89.32167
H         18.50359       86.10169       89.18935
H         17.77077       87.02770       86.96003
H         18.95719       88.37490       87.17770
H         17.80483       88.98290       89.35433
H         16.58589       87.68755       89.03433
H         15.95897       88.86318       86.87900
H         17.17820       90.14262       87.24897
H         14.99186       90.81216       87.91375
H         14.79029       89.43803       88.89687
H         15.96041       90.61890       89.29832
N         21.05359       86.65643       85.58417
C         21.95858       87.42796       84.74273
C         23.40742       87.02761       85.01748
O         24.16389       87.90456       85.40852
C         21.59523       87.31599       83.24128
C         22.50855       88.19109       82.36637
C         22.13192       88.08205       80.91757
O         20.90576       88.45710       80.50621
O         22.93845       87.66014       80.10395
H         20.37035       86.02199       85.14139
H         21.82579       88.50495       84.99962
H         20.54309       87.65434       83.11271
H         21.65673       86.27410       82.87615
H         23.56498       87.86587       82.48886
H         22.43002       89.25435       82.67999
N         23.91197       85.76623       84.85153
C         23.17651       84.58533       84.44197
H         22.09778       84.75059       84.30883
H         23.59684       84.20351       83.48781
H         23.28542       83.80073       85.21888
H         24.91594       85.62330       85.04207
Ca        34.43259       79.67967       85.54888
O         32.15742       77.93668       86.12465
H         31.96181       78.89852       86.25570
H         32.11803       77.54916       87.03447

Ca 1.0



