%chk=apoCaM-CA-Ng.loop1.water1.frame845.chk
%nprocshared=20
%mem=10GB
%nosave
#b3lyp/svp scf=(tight,noincore,xqc) Test 
#IOP(5/87=12) Density=Current Pop=(MK,readradii) iop(6/33=2) iop(6/42=6)

apoCaM-CA-Ng.loop1.water1.frame845 

   0  1 
C         44.27040        6.16327       84.79111
C         43.40056        5.70751       83.65718
O         42.51491        4.89569       83.88453
H         45.03660        6.89139       84.45051
H         43.64298        6.64524       85.56909
H         44.79048        5.28658       85.23113
N         43.59210        6.19195       82.39814
C         42.78135        5.77411       81.25499
C         42.90105        4.26767       80.97763
O         43.67025        3.58794       81.64219
C         43.10474        6.64435       80.01233
C         44.53513        6.62839       79.54717
O         45.50069        5.98792       80.22987
O         44.82929        7.21626       78.51849
H         44.32730        6.90248       82.26050
H         41.71538        5.97103       81.50219
H         42.84371        7.70237       80.23110
H         42.46463        6.31475       79.16784
N         42.12918        3.67771       80.01584
C         42.09777        2.23783       79.75280
C         43.04379        1.87926       78.61425
O         42.60379        1.54256       77.52388
C         40.64657        1.75746       79.49080
C         39.77238        1.80293       80.75894
C         38.30905        1.37364       80.52325
C         38.15097       -0.05749       79.97516
N         36.73727       -0.41869       79.85552
H         41.50483        4.27464       79.45306
H         42.45754        1.65675       80.63194
H         40.69497        0.69840       79.16027
H         40.18858        2.36138       78.67674
H         39.75972        2.83805       81.16267
H         40.22144        1.13727       81.52924
H         37.82450        2.08715       79.82275
H         37.78071        1.43588       81.50044
H         38.65466       -0.77976       80.65497
H         38.61871       -0.13199       78.97023
H         36.28253       -0.41258       80.79740
H         36.24416        0.25188       79.22194
H         36.66069       -1.38046       79.45161
N         44.38332        1.82570       78.86785
C         45.40482        1.37902       77.91383
C         46.73016        1.19145       78.66402
O         47.08362        2.07669       79.43140
C         45.53517        2.33912       76.70141
C         46.00643        3.70828       77.08226
O         45.24705        4.65988       76.99634
O         47.24593        3.88545       77.57979
H         44.67780        2.04832       79.83051
H         45.08269        0.41327       77.49425
H         44.54320        2.41872       76.20796
H         46.24081        1.91900       75.95413
N         47.53515        0.09399       78.55705
C         47.37034       -1.02203       77.64414
C         46.14279       -1.84491       77.92164
O         45.97683       -2.31061       79.04025
H         48.38851        0.07945       79.13861
H         48.24435       -1.69927       77.76635
H         47.38333       -0.64793       76.59854
N         45.25794       -2.09920       76.91455
C         44.06491       -2.92006       77.07426
C         44.20140       -4.17696       76.22674
O         45.11926       -4.25752       75.41947
C         42.84098       -2.06764       76.68967
C         41.53046       -2.75275       76.93677
O         41.19073       -3.12769       78.18482
O         40.75800       -2.95335       76.01340
H         45.45171       -1.71214       75.97713
H         43.97446       -3.24206       78.13458
H         42.92510       -1.77670       75.61809
H         42.84921       -1.13864       77.29807
N         43.37058       -5.24566       76.41352
C         43.54419       -6.50223       75.69812
C         44.86226       -7.19940       76.01567
O         45.15966       -8.18726       75.36105
H         42.60523       -5.18357       77.09941
H         43.49502       -6.29081       74.60747
H         42.71638       -7.19956       75.94976
N         45.70618       -6.73825       76.98720
C         47.04100       -7.27184       77.24383
C         48.06914       -6.19003       76.92863
O         47.67976       -5.09704       76.54138
C         47.14594       -7.81346       78.69284
C         46.81780       -6.77915       79.77519
O         46.27068       -8.90448       78.84035
H         45.42500       -5.93160       77.55694
H         47.26490       -8.11798       76.55763
H         48.19755       -8.14335       78.86731
H         46.82274       -9.72265       78.95325
H         47.47298       -5.88925       79.68749
H         45.75710       -6.45857       79.71284
H         46.96907       -7.23425       80.77700
N         49.40858       -6.44283       77.02329
C         50.42702       -5.46743       76.62136
C         51.23325       -5.99853       75.43255
O         51.93855       -5.21519       74.81022
C         51.35222       -5.10783       77.82779
C         50.50990       -4.77903       79.08919
C         52.29266       -3.92862       77.48433
C         51.35206       -4.56648       80.34920
H         49.71476       -7.35945       77.37717
H         49.92351       -4.53712       76.27887
H         51.96688       -6.00528       78.06343
H         49.84988       -5.64155       79.31619
H         49.87021       -3.88789       78.90871
H         51.69955       -3.01833       77.24814
H         52.98149       -3.69956       78.31886
H         52.95604       -4.15475       76.63054
H         51.99132       -3.66562       80.27085
H         50.67992       -4.42284       81.22047
H         51.98871       -5.45785       80.53755
N         51.18313       -7.30905       75.04942
C         51.95591       -7.85875       73.94468
C         52.92075       -8.91851       74.44544
O         52.91450       -9.24700       75.62606
C         51.00806       -8.39880       72.84343
C         50.05963       -9.49669       73.34303
O         50.23713       -7.34439       72.32966
H         50.60154       -7.97621       75.56866
H         52.58754       -7.06805       73.48206
H         51.60867       -8.84418       72.01766
H         50.83993       -6.80329       71.75451
H         49.36863       -9.11019       74.12103
H         49.43632       -9.86099       72.50020
H         50.63093      -10.35412       73.75623
N         53.82977       -9.45177       73.58644
C         54.86139      -10.40015       73.97615
C         56.20182       -9.68821       73.88893
O         56.89720       -9.62291       74.89224
C         54.75525      -11.68396       73.11200
C         55.75935      -12.76164       73.53045
O         54.93845      -11.38866       71.74932
H         53.82673       -9.12111       72.60940
H         54.72083      -10.71979       75.03440
H         53.73583      -12.10987       73.28471
H         54.13761      -11.71134       71.25906
H         56.80222      -12.40979       73.38534
H         55.61147      -13.03529       74.59696
H         55.60645      -13.67449       72.91451
N         56.60286       -9.08739       72.73048
C         57.84769       -8.34534       72.58722
C         57.57535       -6.92430       72.12335
O         56.98241       -6.74650       71.06783
C         58.73865       -9.07456       71.56920
C         60.01410       -8.27939       71.23620
C         61.02146       -9.06221       70.39040
C         60.43561       -9.60624       69.07925
N         61.47019      -10.27890       68.29713
H         56.00065       -9.15456       71.89771
H         58.40766       -8.30915       73.54741
H         58.16320       -9.23623       70.63155
H         59.00713      -10.06419       71.99816
H         60.52599       -7.98850       72.17867
H         59.73139       -7.35365       70.68789
H         61.41090       -9.91146       70.99114
H         61.86762       -8.37762       70.16068
H         59.99897       -8.77624       68.48068
H         59.63213      -10.34030       69.30668
H         61.03684      -10.69478       67.44170
H         62.20225       -9.58976       68.00954
H         61.90723      -11.04378       68.86155
N         58.04782       -5.86245       72.84222
C         58.01106       -4.48908       72.35109
C         56.88652       -3.68338       72.99704
O         56.05168       -3.20665       72.24051
C         59.39689       -3.80582       72.46725
C         60.50574       -4.59003       71.74888
C         61.82324       -3.87179       71.83699
O         62.40754       -3.53310       70.82018
O         62.37514       -3.61219       73.03833
H         58.53754       -6.04723       73.72830
H         57.78981       -4.49879       71.25873
H         59.70072       -3.69354       73.52134
H         59.32652       -2.79035       72.01742
H         60.23057       -4.73464       70.68148
H         60.62761       -5.58367       72.22559
N         56.72869       -3.46100       74.33682
C         57.57349       -3.96813       75.39575
H         58.59915       -3.56900       75.32016
H         57.17334       -3.63427       76.37630
H         57.56724       -5.07368       75.40580
H         55.91800       -2.89430       74.63226
Ca        47.33659        5.56443       79.03298
O         47.13261        3.72365       82.50384
H         46.28933        4.05116       82.10261
H         46.84235        3.08501       83.20262

Ca 1.0



