%chk=apoCaM-CA-Ng.loop1.water1.frame839.chk
%nprocshared=20
%mem=10GB
%nosave
#b3lyp/svp scf=(tight,noincore,xqc) Test 
#IOP(5/87=12) Density=Current Pop=(MK,readradii) iop(6/33=2) iop(6/42=6)

apoCaM-CA-Ng.loop1.water1.frame839 

   0  1 
C         35.11980      111.00809       84.74463
C         33.76120      110.65145       84.22015
O         32.87060      110.40612       85.02199
H         35.83823      111.19609       83.91970
H         35.05072      111.91523       85.37872
H         35.50536      110.16418       85.35650
N         33.52830      110.58071       82.87677
C         32.24421      110.15855       82.31304
C         31.89045      108.74438       82.76416
O         32.67170      108.13844       83.48625
C         32.23998      110.32995       80.77376
C         33.29224      109.55452       80.02564
O         33.37591      109.68256       78.81457
O         34.15431      108.73980       80.66343
H         34.29884      110.82694       82.23683
H         31.45223      110.83376       82.70547
H         32.40089      111.40850       80.55577
H         31.24373      110.05605       80.36722
N         30.70677      108.16157       82.41374
C         30.26636      106.89990       83.00291
C         30.38154      105.77124       82.00181
O         29.43662      105.02455       81.78587
C         28.86056      107.07951       83.61935
C         28.87148      108.17800       84.69979
C         27.47812      108.42768       85.28662
C         27.53292      109.53620       86.34998
N         26.20440      109.81302       86.89428
H         30.07383      108.64234       81.75714
H         30.94807      106.59700       83.82764
H         28.52479      106.12395       84.07890
H         28.14344      107.35684       82.81511
H         29.23092      109.13243       84.25695
H         29.56963      107.88044       85.51302
H         27.09053      107.49233       85.74557
H         26.79016      108.73972       84.47031
H         27.93954      110.46834       85.89692
H         28.21125      109.22544       87.17587
H         25.56630      110.14062       86.13298
H         25.81121      108.95343       87.34135
H         26.28135      110.56593       87.61611
N         31.58199      105.57695       81.38682
C         31.91699      104.44448       80.54337
C         33.23004      103.76122       81.08054
O         34.25741      104.61541       81.49673
C         31.78483      104.79930       79.02642
C         32.03853      106.22142       78.55114
O         31.11187      106.86174       78.07804
O         33.25666      106.78593       78.57877
H         32.33140      106.26483       81.54930
H         31.15623      103.64486       80.68029
H         30.70768      104.62981       78.79143
H         32.34443      104.07247       78.40416
N         33.77612      102.63279       80.30327
C         32.78928      101.58025       80.02550
C         32.03221      101.11386       81.24918
O         32.40183      101.42892       82.37257
H         34.55891      102.21035       80.85543
H         33.27631      100.71251       79.52990
H         32.05636      101.97927       79.29726
N         30.88322      100.41495       81.06727
C         29.98612      100.04132       82.14750
C         29.81405       98.54260       82.13875
O         30.08679       97.92226       83.15457
C         28.65470      100.79358       81.96369
C         27.66830      100.57669       83.08185
O         26.58900      101.14428       83.04358
O         27.95886       99.78487       84.13308
H         30.59785      100.19608       80.10014
H         30.40485      100.35230       83.13217
H         28.18497      100.50387       80.99991
H         28.87730      101.88313       81.92240
N         29.36391       97.89901       81.02131
C         29.28126       96.45503       80.88298
C         30.64104       95.85924       80.56998
O         30.81232       95.31616       79.48688
H         29.06790       98.46005       80.20889
H         28.62238       96.23506       80.01363
H         28.80840       95.99510       81.77686
N         31.65740       95.91967       81.47191
C         32.99080       95.37793       81.24389
C         33.70459       96.01576       80.05638
O         33.21804       96.96291       79.45684
C         33.86334       95.52651       82.52937
C         34.07919       96.99193       82.94952
O         33.26604       94.83740       83.59616
H         31.46474       96.32426       82.38752
H         32.88085       94.29362       81.01894
H         34.87747       95.10089       82.35545
H         33.44926       93.87215       83.45123
H         34.75579       97.02996       83.82898
H         34.53621       97.58529       82.13393
H         33.12986       97.48876       83.23122
N         34.90387       95.49376       79.68348
C         35.74728       95.98023       78.59806
C         35.87986       94.87380       77.57061
O         35.65185       95.11347       76.39110
C         37.15485       96.36668       79.15405
C         37.02016       97.37997       80.31675
C         38.04551       96.92819       78.02522
C         38.34120       97.72205       81.00575
H         35.24857       94.69184       80.22521
H         35.30320       96.88101       78.11773
H         37.64036       95.45122       79.56084
H         36.38866       96.92276       81.10060
H         36.53090       98.31313       79.96197
H         38.16147       96.19001       77.20484
H         37.60425       97.85843       77.60737
H         39.06828       97.14879       78.39024
H         39.03253       98.25577       80.32465
H         38.13749       98.38879       81.87034
H         38.82713       96.79663       81.38252
N         36.22682       93.61938       77.97003
C         36.43796       92.49405       77.08223
C         37.78369       91.88104       77.40700
O         38.24865       91.99638       78.53720
C         35.30327       91.45599       77.26532
C         33.94977       92.04917       76.84982
O         35.56184       90.32157       76.47840
H         36.34689       93.43035       78.97500
H         36.44097       92.82539       76.01907
H         35.26636       91.16254       78.34196
H         34.99501       89.58813       76.83632
H         33.97495       92.34192       75.77757
H         33.14461       91.29748       76.98997
H         33.69961       92.94116       77.46117
N         38.43949       91.15280       76.47380
C         39.69153       90.46638       76.74226
C         40.74779       90.85409       75.72365
O         41.85056       91.20485       76.11509
C         39.42519       88.94414       76.76480
C         40.64425       88.15308       77.24807
O         39.02821       88.48968       75.49587
H         37.99425       91.03889       75.55020
H         40.07447       90.72018       77.75790
H         38.60665       88.77477       77.50626
H         38.37511       87.75624       75.63737
H         40.93355       88.48880       78.26808
H         40.39194       87.07313       77.30057
H         41.50746       88.28847       76.56406
N         40.47809       90.76747       74.38877
C         41.48451       90.88391       73.34981
C         41.18187       92.04433       72.42351
O         40.07716       92.13394       71.90713
C         41.48423       89.54593       72.59597
C         42.64855       89.40152       71.61056
C         42.66567       88.01943       70.92871
C         42.70669       86.81070       71.89144
N         43.85146       86.85394       72.80344
H         39.52832       90.51929       74.08049
H         42.49463       91.01743       73.79578
H         40.51306       89.39530       72.07297
H         41.58648       88.75971       73.37164
H         43.60583       89.55575       72.15196
H         42.57701       90.18417       70.82423
H         43.55365       87.97856       70.26216
H         41.75841       87.91794       70.29394
H         42.75916       85.88227       71.28211
H         41.76634       86.74843       72.48084
H         43.85304       85.98578       73.38616
H         44.74403       86.90421       72.26224
H         43.77901       87.67166       73.45010
N         42.16097       92.94390       72.12220
C         41.96754       94.03849       71.18022
C         41.04262       95.10877       71.75405
O         40.02517       95.36173       71.12432
C         43.32138       94.59808       70.68228
C         44.10441       93.52296       69.90339
C         45.40465       94.05947       69.38147
O         46.34379       94.50720       70.23646
O         45.62559       94.07300       68.18095
H         43.09886       92.79946       72.52515
H         41.48342       93.63373       70.26100
H         43.94665       94.95957       71.51714
H         43.12501       95.44971       69.99339
H         43.48486       93.16699       69.05016
H         44.32732       92.65250       70.55542
N         41.25854       95.78370       72.92305
C         42.38133       95.58535       73.81423
H         43.32978       95.87567       73.33035
H         42.26611       96.23854       74.70562
H         42.41862       94.53538       74.16725
H         40.55329       96.47837       73.21611
Ca        34.81835      105.66985       79.63098
O         35.90070      107.27243       82.69721
H         34.98576      106.90463       82.78239
H         36.31643      107.10643       83.58010

Ca 1.0



