%chk=apoCaM-CA-Ng.loop4.water3.frame376.chk
%nprocshared=20
%mem=10GB
%nosave
#b3lyp/svp scf=(tight,noincore,xqc) Test 
#IOP(5/87=12) Density=Current Pop=(MK,readradii) iop(6/33=2) iop(6/42=6)

apoCaM-CA-Ng.loop4.water3.frame376 

   -3  1 
C         55.98830      100.25441       26.11900
C         57.43341      100.52668       26.40668
O         58.24249      100.43427       25.49804
H         55.39410      101.16713       26.33674
H         55.84271       99.98787       25.04944
H         55.62751       99.41910       26.75293
N         57.82031      100.90985       27.65740
C         59.18199      101.28397       28.02265
C         59.64059      102.46409       27.18653
O         60.38927      102.28673       26.24361
C         60.15436      100.07941       28.16311
C         60.43107       99.23737       26.95261
O         61.04775       99.69297       26.00772
O         60.07929       97.93728       26.94760
H         57.09352      101.00158       28.38337
H         59.15531      101.66378       29.06907
H         59.72217       99.40929       28.93770
H         61.12994      100.44669       28.55166
N         59.14487      103.70416       27.48213
C         59.42373      104.97638       26.80984
C         60.85359      105.45797       27.05684
O         60.99730      106.46886       27.73205
C         58.97763      104.98952       25.32121
C         59.14742      106.38880       24.66076
C         57.51464      104.51609       25.19882
C         58.32225      107.52374       25.28891
H         58.48036      103.75948       28.27003
H         58.77089      105.71700       27.32300
H         59.61092      104.28210       24.74474
H         58.85504      106.30969       23.59141
H         60.21855      106.68159       24.68930
H         56.83250      105.14357       25.80947
H         57.17689      104.56099       24.14666
H         57.40984      103.46653       25.54263
H         58.61012      107.70305       26.34434
H         58.50636      108.46562       24.73095
H         57.23468      107.31201       25.23617
N         61.95755      104.79735       26.59768
C         63.30739      105.19682       26.97401
C         63.73325      106.46846       26.23737
O         63.91929      107.46346       26.92384
C         64.30107      104.01361       26.86678
C         63.96056      102.86714       27.79117
O         64.67921      101.88094       27.81115
O         62.88062      102.90895       28.59766
H         61.85506      103.95072       26.03507
H         63.30255      105.43516       28.06433
H         65.31669      104.37489       27.13798
H         64.32498      103.59012       25.85116
N         63.90257      106.58431       24.88243
C         63.76573      105.49430       23.92505
C         64.00219      105.91263       22.47480
O         64.22326      107.09047       22.23147
H         64.16123      107.52006       24.53536
H         62.74574      105.07489       24.01706
H         64.53407      104.75670       24.16006
N         63.95585      105.03957       21.41471
C         63.71233      103.59351       21.44878
C         62.39497      103.30552       22.14546
O         62.39871      102.65997       23.18349
C         64.90669      102.80597       22.04240
C         66.21187      103.03826       21.32281
O         66.29341      103.80729       20.37738
O         67.31107      102.37607       21.72896
H         64.08073      105.44755       20.47427
H         63.63510      103.21805       20.40409
H         64.67389      101.72341       21.96103
H         65.05837      103.02587       23.11061
N         61.21364      103.81075       21.69276
C         61.04524      104.53375       20.44788
C         60.95002      106.00806       20.69339
O         61.04815      106.45382       21.82852
H         60.37898      103.70502       22.28028
H         60.13969      104.15356       19.92668
H         61.89545      104.37791       19.75754
N         60.78551      106.83553       19.63192
C         60.76665      108.28439       19.74380
C         59.36754      108.84143       19.52001
O         59.20032      110.04607       19.65419
C         61.89240      108.89269       18.86990
C         61.89319      108.50960       17.37708
C         60.68213      109.01196       16.65204
N         60.43302      110.33872       16.58417
O         59.92778      108.22006       16.10945
H         60.65651      106.40997       18.70155
H         61.00718      108.59151       20.78584
H         62.85905      108.52909       19.28399
H         61.88996      109.99776       18.98279
H         61.98691      107.40882       17.26346
H         62.79006      108.95471       16.89513
H         61.06880      111.01889       17.02257
H         59.60892      110.69453       16.08867
N         58.29632      108.01725       19.30289
C         56.90708      108.46603       19.34385
C         56.15132      108.19731       18.04936
O         54.98668      108.56736       17.99556
C         56.16989      107.79797       20.54825
C         56.78100      108.23520       21.88811
C         56.15453      106.26075       20.46586
H         58.45206      107.00799       19.18793
H         56.86042      109.56690       19.49955
H         55.11315      108.14629       20.54717
H         56.21489      107.78540       22.73262
H         57.84199      107.91809       21.96725
H         56.72803      109.33964       21.99086
H         55.55952      105.84419       21.30564
H         55.69640      105.91670       19.51537
H         57.17850      105.84227       20.54298
N         56.72234      107.58893       16.96662
C         55.99372      107.36126       15.72178
C         55.96220      105.89297       15.31222
O         55.40682      105.63907       14.24991
C         56.63498      108.17860       14.57336
C         56.61897      109.67016       14.79429
N         55.45949      110.34425       14.97275
O         57.67057      110.28614       14.77365
H         57.70900      107.30125       17.00039
H         54.93528      107.68641       15.81138
H         56.07360      107.99305       13.63202
H         57.68214      107.83782       14.41898
H         54.55421      109.85468       14.97454
H         55.46870      111.36734       15.10287
N         56.50595      104.86724       16.04612
C         56.57110      103.51112       15.48901
C         56.87711      102.41685       16.51339
O         57.79191      102.54803       17.31388
C         57.56893      103.47344       14.29663
C         58.99077      103.82758       14.67265
C         59.80893      102.90285       15.34271
C         59.51832      105.08764       14.34038
C         61.11580      103.23920       15.69980
C         60.82764      105.42329       14.69839
C         61.62842      104.50423       15.38348
O         62.88642      104.84398       15.72803
H         56.90266      105.04956       16.98011
H         55.57029      103.26551       15.06940
H         57.21590      104.19612       13.53275
H         57.55296      102.48331       13.79236
H         59.44052      101.91537       15.58448
H         58.91369      105.81585       13.81541
H         61.72766      102.51395       16.22082
H         61.21930      106.40023       14.44524
H         63.46904      104.23646       16.20586
N         56.15438      101.25567       16.46422
C         56.38741      100.03701       17.24022
C         56.14200      100.14786       18.73170
O         56.21612       99.10901       19.37696
C         57.76777       99.39790       16.96168
C         57.91136       98.93998       15.50365
C         59.14966       98.10586       15.32864
O         60.01985       98.44677       14.54481
O         59.29041       96.95721       16.02090
H         55.39917      101.19055       15.76456
H         55.62922       99.29295       16.90334
H         57.84586       98.48451       17.59276
H         58.59911      100.07683       17.24816
H         57.93084       99.82330       14.82987
H         57.04456       98.30121       15.22611
N         55.77240      101.30050       19.35932
C         55.33777      101.27316       20.75067
C         53.85683      100.94442       20.84557
O         53.37024      100.78977       21.95729
C         55.66775      102.59060       21.47105
C         57.14983      102.99356       21.40946
C         58.07891      101.94793       21.95325
O         58.25824      100.90389       21.34745
O         58.77267      102.17705       23.07808
H         55.62772      102.16336       18.81728
H         55.86103      100.45692       21.29405
H         55.37512      102.49175       22.54056
H         55.06733      103.41254       21.02562
H         57.26342      103.92056       22.00439
H         57.45405      103.23091       20.36789
N         53.08166      100.79454       19.72908
C         51.68240      100.43070       19.76851
H         51.08329      101.23531       19.29481
H         51.53850       99.49044       19.19514
H         51.31401      100.27034       20.80238
H         53.48060      100.93445       18.79050
Ca        60.37883      100.68788       23.56635
O         59.71078       97.79799       23.54381
H         60.57577       97.32294       23.62410
H         59.23396       97.59278       24.38665
O         63.42709       99.89049       24.01503
H         63.67501       99.44872       24.86533
H         64.28457       99.99173       23.53208
O         61.53674       99.87120       20.99412
H         62.44762       99.62670       20.69374
H         60.97925       99.08295       20.77383

Ca 1.0



