%chk=apoCaM-CA-Ng.loop2.water4.frame422.chk
%nprocshared=20
%mem=10GB
%nosave
#b3lyp/svp scf=(tight,noincore,xqc) Test 
#IOP(5/87=12) Density=Current Pop=(MK,readradii) iop(6/33=2) iop(6/42=6)

apoCaM-CA-Ng.loop2.water4.frame422 

   -2  1 
C         92.84331       99.83764       65.90674
C         93.91934      100.49464       65.09590
O         95.01845       99.96614       65.02277
H         91.97238       99.60210       65.26163
H         93.21690       98.89956       66.37064
H         92.52416      100.52742       66.71721
N         93.66493      101.66319       64.44549
C         94.68838      102.40634       63.71845
C         95.68021      102.97674       64.71930
O         95.25929      103.71215       65.60331
C         94.02838      103.54306       62.90421
C         94.98600      104.31148       62.02722
O         96.29773      104.00598       61.98009
O         94.56133      105.22052       61.33260
H         92.70439      102.03992       64.48288
H         95.18329      101.72525       62.98993
H         93.52029      104.25237       63.59373
H         93.25794      103.09518       62.23879
N         97.01301      102.68927       64.64719
C         97.96963      103.23073       65.61156
C         97.77296      102.66475       67.01513
O         98.39874      103.17295       67.93483
C         99.40739      102.96514       65.15519
H         97.35355      102.10272       63.86974
H         97.82799      104.33467       65.64501
H         99.57283      103.41204       64.15173
H        100.12984      103.42760       65.86202
H         99.60358      101.87298       65.10164
N         96.94103      101.60589       67.25408
C         96.66857      101.03255       68.56587
C         97.96337      100.51530       69.16478
O         98.36897      100.97362       70.22442
C         95.93741      102.08550       69.43523
C         95.20770      101.55712       70.64410
O         94.57797      102.34401       71.33179
O         95.11443      100.24124       70.91800
H         96.46650      101.15994       66.46572
H         95.97354      100.17468       68.41834
H         95.14636      102.55035       68.80614
H         96.64106      102.88812       69.73989
N         98.69108       99.57509       68.49270
C        100.00601       99.13057       68.92820
C        100.06059       97.67079       69.31376
O        101.12919       97.24584       69.73027
H         98.31829       99.18909       67.61095
H        100.34569       99.70873       69.81287
H        100.73457       99.32243       68.11007
N         98.98126       96.83813       69.21846
C         99.01537       95.44867       69.65884
C         98.92363       94.53321       68.45729
O         97.94384       94.57116       67.72563
C         97.89916       95.21543       70.69563
C         97.86859       93.81429       71.26459
N         97.48807       92.75654       70.50906
O         98.15806       93.63892       72.43872
H         98.09588       97.18878       68.82489
H         99.97411       95.23548       70.18088
H         96.90876       95.44777       70.25591
H         98.08280       95.92946       71.53060
H         97.19064       92.87748       69.53190
H         97.45512       91.80937       70.91328
N         99.95225       93.67925       68.20131
C         99.99876       92.75264       67.08985
C         98.96573       91.65707       67.20741
O         98.88662       91.01504       68.24509
H        100.77589       93.69289       68.82210
H        100.99118       92.25288       67.10740
H         99.92068       93.30172       66.12598
N         98.21318       91.31902       66.12594
C         97.31387       90.16855       66.10440
C         96.02805       90.43466       66.87172
O         95.65429       89.61435       67.69834
C         97.04486       89.67105       64.65263
C         96.34693       90.65886       63.70490
O         98.24283       89.21709       64.06917
H         98.38046       91.83749       65.25220
H         97.82873       89.29955       66.57688
H         96.37844       88.78387       64.73512
H         98.82264       90.00412       63.89797
H         95.36002       90.96009       64.08985
H         96.95550       91.56892       63.53640
H         96.18468       90.16482       62.72336
N         95.30404       91.56674       66.64953
C         94.01612       91.85950       67.27355
C         94.19025       92.96407       68.29267
O         94.83215       93.96773       68.01620
C         92.96023       92.17853       66.17980
C         92.59915       90.85326       65.45577
C         91.69495       92.83034       66.77895
C         91.71264       91.03114       64.22718
H         95.69158       92.27626       66.00865
H         93.63705       90.97557       67.83356
H         93.40263       92.90822       65.46519
H         92.09357       90.16665       66.17143
H         93.52103       90.34359       65.11806
H         91.21603       92.15881       67.52233
H         91.94752       93.79086       67.27654
H         90.96257       93.08630       65.98877
H         90.72878       91.46550       64.49142
H         92.22234       91.67790       63.48302
H         91.52878       90.03615       63.76932
N         93.64596       92.78705       69.53096
C         93.86458       93.66519       70.67300
C         93.33776       92.95431       71.93094
O         92.58384       93.51921       72.70529
C         93.22147       95.04842       70.41133
C         93.66600       96.08122       71.39760
O         92.85007       96.66995       72.07729
O         94.96555       96.41141       71.49176
H         93.08804       91.93153       69.67735
H         94.96254       93.77110       70.79151
H         92.11238       94.94650       70.40122
H         93.52437       95.43921       69.42066
N         93.65879       91.63581       72.10512
C         93.16275       90.71986       73.13926
C         91.65338       90.84252       73.35181
O         90.92804       90.88202       72.36693
C         93.54270       89.27872       72.68694
C         93.20076       88.15271       73.63643
C         94.23662       87.43837       74.26440
C         91.86729       87.76850       73.87523
C         93.94637       86.37679       75.12413
C         91.58185       86.70464       74.73646
C         92.62023       86.01098       75.36192
H         94.26974       91.22243       71.38377
H         93.69309       90.94695       74.08535
H         94.64402       89.27927       72.52896
H         93.07622       89.05358       71.70141
H         95.27234       87.70179       74.08934
H         91.04528       88.27582       73.39021
H         94.75219       85.83579       75.60255
H         90.55463       86.41377       74.91442
H         92.39847       85.18581       76.02573
N         91.09180       90.85145       74.60902
C         89.65730       90.93800       74.87405
C         89.01091       92.22293       74.39459
O         87.79514       92.26724       74.27311
C         89.57350       90.92192       76.40826
C         90.76099       90.07129       76.78051
C         91.82932       90.61341       75.83573
H         89.17710       90.04405       74.41602
H         89.79957       91.94036       76.80687
H         88.59285       90.59876       76.81781
H         91.04414       90.09166       77.85430
H         90.52272       89.02242       76.48982
H         92.25623       91.57742       76.18807
H         92.61834       89.83894       75.74642
N         89.76288       93.34685       74.22585
C         89.20679       94.65742       73.90152
C         88.58827       94.69579       72.49888
O         87.98805       95.70378       72.15395
C         90.34394       95.69928       74.03492
C         89.93042       97.17951       74.04164
C         91.16658       98.04017       74.01426
O         92.01402       97.95379       74.88948
O         91.36952       98.84528       72.95379
H         90.77189       93.28044       74.41735
H         88.42886       94.88542       74.66320
H         91.05265       95.50625       73.20777
H         90.87745       95.52325       74.99644
H         89.31909       97.40130       74.94264
H         89.33651       97.42403       73.14073
N         88.69296       93.65062       71.62563
C         88.12240       93.69669       70.29662
H         87.02400       93.84881       70.35705
H         88.58343       94.52329       69.71536
H         88.31937       92.73998       69.76630
H         89.19919       92.79469       71.88376
Ca        93.35306       99.71219       72.25910
O         94.44627      101.22201       74.73401
H         95.34578      100.83839       74.88916
H         93.94223      101.01699       75.56121
O         91.55995      102.14239       73.07225
H         92.27857      102.80017       72.89607
H         91.39873      102.20617       74.04696
O         95.27944       98.02848       74.22055
H         95.09863       98.06864       75.19282
H         95.14101       97.07720       73.98687
O         91.21080      100.48722       70.31100
H         90.81835       99.57816       70.32599
H         90.87788      100.88910       69.47027

Ca 1.0



