%chk=apoCaM-CA-Ng.loop3.water5.frame286.chk
%nprocshared=20
%mem=10GB
%nosave
#b3lyp/svp scf=(tight,noincore,xqc) Test 
#IOP(5/87=12) Density=Current Pop=(MK,readradii) iop(6/33=2) iop(6/42=6)

apoCaM-CA-Ng.loop3.water5.frame286 

   0  1 
C         43.50741       27.54967       25.30108
C         43.16161       26.66841       24.13759
O         42.03323       26.71269       23.67023
H         44.34569       28.22315       25.02566
H         42.63505       28.16811       25.60288
H         43.81309       26.92103       26.16399
N         44.10251       25.82283       23.62477
C         43.88454       24.91425       22.50005
C         42.85743       23.81665       22.81941
O         42.50424       23.05880       21.92750
C         43.54041       25.72032       21.22367
C         43.70542       24.93980       19.93673
O         43.47593       25.48337       18.87012
O         44.15754       23.67058       19.93290
H         45.04211       25.82815       24.05148
H         44.85498       24.40748       22.29984
H         44.23778       26.58407       21.14996
H         42.50593       26.11249       21.30001
N         42.38942       23.61636       24.08763
C         41.48702       22.51889       24.43757
C         40.05018       22.75294       23.98134
O         39.23609       21.85795       24.16545
C         41.50936       22.28563       25.96449
C         42.90312       21.83659       26.43577
C         42.93470       21.58861       27.94543
C         44.31288       21.06643       28.37372
N         44.35521       20.81527       29.81281
H         42.75233       24.20178       24.85155
H         41.85590       21.58506       23.95624
H         40.78871       21.47978       26.22608
H         41.20041       23.21659       26.49075
H         43.66806       22.60309       26.18755
H         43.16621       20.89401       25.90695
H         42.16247       20.83466       28.21218
H         42.71030       22.53786       28.48034
H         45.09654       21.81038       28.10665
H         44.53111       20.11861       27.83211
H         45.29911       20.44352       30.06606
H         44.18791       21.70451       30.33707
H         43.63144       20.10722       30.07519
N         39.64852       23.92460       23.41117
C         38.26542       24.19096       23.01366
C         37.78353       23.21602       21.92629
O         38.58242       22.47745       21.36705
C         38.16564       25.69845       22.63832
C         36.87813       26.12809       22.01890
O         36.61777       25.75663       20.89425
O         36.02929       26.97513       22.61799
H         40.33992       24.67796       23.29492
H         37.61320       24.02219       23.89990
H         38.96192       25.96553       21.90946
H         38.34499       26.28602       23.56574
N         36.45002       23.12741       21.63221
C         35.86969       22.19919       20.66975
C         36.37962       22.42564       19.26467
O         36.91515       21.50030       18.67202
H         35.78896       23.72626       22.14958
H         34.76596       22.33937       20.66211
H         36.07498       21.15526       20.99164
N         36.26305       23.65012       18.68045
C         36.77753       23.97877       17.35409
C         38.09552       24.75754       17.43205
O         38.59469       25.17976       16.39833
C         35.70813       24.73782       16.53473
C         35.46736       26.15622       17.00547
N         35.76967       27.20015       16.19780
O         34.99631       26.36822       18.11200
H         35.83241       24.39682       19.23082
H         36.99638       23.04219       16.79577
H         34.74997       24.17350       16.53902
H         36.06130       24.77348       15.48193
H         36.16822       27.04877       15.26001
H         35.61397       28.16757       16.50925
N         38.75063       24.92114       18.61808
C         40.03545       25.58421       18.77251
C         39.94643       27.09230       18.72617
O         38.90826       27.64067       18.38440
H         38.36794       24.48845       19.46722
H         40.78473       25.18721       18.05428
H         40.39776       25.34458       19.79610
N         41.01561       27.82768       19.15289
C         41.00312       29.28221       19.30637
C         39.93225       29.70896       20.29992
O         39.33540       28.87599       20.96514
C         42.38164       29.80499       19.79497
C         43.41327       29.96039       18.69267
C         43.81080       28.89140       17.86939
C         44.00284       31.22393       18.48690
C         44.76475       29.08530       16.86447
C         44.96060       31.41263       17.48920
C         45.34352       30.34309       16.67166
O         46.26431       30.51227       15.70157
H         41.85736       27.31594       19.44076
H         40.74659       29.75240       18.33091
H         42.76090       29.14978       20.60983
H         42.24873       30.80836       20.25343
H         43.39042       27.90867       17.98409
H         43.72841       32.07065       19.10437
H         45.05497       28.25430       16.23412
H         45.40312       32.39170       17.35416
H         46.68817       31.36738       15.53939
N         39.61314       31.03189       20.38975
C         38.49198       31.55336       21.16322
C         37.50261       32.14761       20.17755
O         36.35089       31.73855       20.19149
C         38.94892       32.58824       22.22759
C         39.99425       31.94245       23.17377
C         37.72336       33.08227       23.03297
C         40.52881       32.89002       24.24958
H         40.15326       31.69684       19.81840
H         37.98140       30.73222       21.71599
H         39.41536       33.45666       21.71147
H         40.86529       31.60381       22.57307
H         39.55162       31.05248       23.67346
H         37.26044       32.24351       23.59544
H         38.00184       33.88667       23.74177
H         36.94450       33.50972       22.37635
H         41.30195       32.36487       24.84854
H         40.98469       33.78790       23.78243
H         39.72807       33.20197       24.95045
N         37.88382       33.07422       19.24895
C         36.95620       33.57621       18.24262
C         35.89132       34.47217       18.84947
O         34.90029       34.72125       18.18006
C         37.69939       34.34037       17.13675
O         38.64824       33.49716       16.54073
H         38.86787       33.38106       19.21546
H         36.46464       32.69635       17.76743
H         38.20125       35.22810       17.58701
H         36.97716       34.67723       16.36010
H         39.27331       34.08519       16.04250
N         36.04389       35.01860       20.09539
C         35.07468       35.90881       20.72518
C         33.74361       35.22625       21.01051
O         32.79534       35.93603       21.32954
C         34.90682       37.19081       19.89121
H         36.90812       34.83997       20.62027
H         35.48001       36.24024       21.70714
H         34.45397       36.99492       18.89947
H         34.25509       37.91339       20.42714
H         35.89725       37.67258       19.74337
N         33.59506       33.86640       20.98522
C         32.31983       33.20196       21.23119
C         32.33443       32.39581       22.51796
O         33.38603       32.22698       23.12450
C         31.97779       32.30977       20.03507
H         34.41365       33.26822       20.80000
H         31.51439       33.95967       21.34418
H         31.93888       32.92038       19.10810
H         32.75598       31.52783       19.90477
H         30.99605       31.81235       20.17476
N         31.15425       31.94147       23.03524
C         30.99067       31.20001       24.28708
C         31.51964       31.92611       25.52727
O         31.45097       31.33508       26.59717
C         31.58508       29.77514       24.20285
C         30.94460       28.93257       23.08849
C         31.31526       27.48280       23.24160
O         32.48366       27.13916       23.26126
O         30.35178       26.55443       23.39593
H         30.28811       32.15857       22.51657
H         29.89987       31.05696       24.45825
H         31.36024       29.26553       25.16683
H         32.68858       29.80044       24.07991
H         31.26477       29.31371       22.09494
H         29.83671       29.00246       23.15270
N         32.03907       33.18882       25.49083
C         32.59684       33.85082       26.65340
H         33.65803       34.10705       26.44893
H         32.03219       34.78377       26.85451
H         32.56832       33.21534       27.56341
H         32.05106       33.72999       24.61831
Ca        34.25814       27.35898       21.26321
O         32.16161       28.05427       19.03425
H         32.30082       28.33301       18.09443
H         31.52122       27.30116       18.97765
O         34.09547       30.04797       21.74587
H         34.65428       30.04304       20.93235
H         34.72674       29.86768       22.48679
O         32.88165       24.92927       20.24619
H         33.09581       24.55386       21.13719
H         33.01971       24.17728       19.61764
O         36.68222       28.60949       20.20407
H         37.15856       29.34204       19.74633
H         36.58803       27.91653       19.50667
O         34.80493       29.94917       18.23553
H         34.51243       30.89378       18.23225
H         35.76394       29.99242       17.99468

Ca 1.0



