%chk=apoCaM-CA-Ng.loop4.water5.frame814.chk
%nprocshared=20
%mem=10GB
%nosave
#b3lyp/svp scf=(tight,noincore,xqc) Test 
#IOP(5/87=12) Density=Current Pop=(MK,readradii) iop(6/33=2) iop(6/42=6)

apoCaM-CA-Ng.loop4.water5.frame814 

   -3  1 
C         82.41393        2.85143       91.75324
C         82.35771        3.25223       93.19649
O         81.37272        2.97236       93.86156
H         82.51905        3.75937       91.12207
H         83.28944        2.18922       91.58498
H         81.49049        2.31195       91.45454
N         83.40714        3.91855       93.74855
C         83.46785        4.37817       95.13103
C         83.37879        3.21101       96.10081
O         82.57856        3.25348       97.02512
C         82.39158        5.46112       95.41495
C         82.48327        6.66852       94.51920
O         81.59846        7.67133       94.67332
O         83.34320        6.75650       93.65765
H         84.22598        4.11607       93.15210
H         84.46640        4.84467       95.28741
H         82.49735        5.81230       96.46437
H         81.37632        5.02604       95.30134
N         84.18161        2.11970       95.94087
C         84.18065        1.00365       96.88473
C         84.80997        1.47394       98.19778
O         85.96233        1.87935       98.16832
C         84.87231       -0.27638       96.29886
C         86.36274       -0.08230       95.89102
C         84.03097       -0.80049       95.11557
C         87.05048       -1.37656       95.44903
H         84.79196        2.08951       95.11315
H         83.12804        0.70192       97.04783
H         84.83608       -1.05481       97.09338
H         86.94642        0.28016       96.75670
H         86.45898        0.65725       95.07011
H         84.40562       -1.77328       94.74294
H         82.98531       -0.97999       95.44199
H         84.02162       -0.07279       94.27672
H         88.11767       -1.16621       95.22500
H         87.00240       -2.13337       96.26052
H         86.59686       -1.79124       94.52725
N         84.14349        1.54060       99.38886
C         82.75666        1.15454       99.61485
C         82.26777        1.83618      100.88073
O         82.68126        1.46357      101.97069
C         82.64199       -0.38352       99.69029
C         81.25325       -0.86048       99.98779
O         80.32909       -0.59341       99.23639
O         81.03308       -1.61428      101.08177
H         84.65897        1.95990      100.18064
H         82.13082        1.54815       98.79042
H         83.32196       -0.75630      100.48802
H         82.96589       -0.84010       98.73457
N         81.45079        2.92435      100.78718
C         81.06303        3.71362      101.94024
C         79.81638        3.20598      102.62290
O         79.43238        3.81308      103.61267
H         81.19554        3.28355       99.85393
H         80.82445        4.74490      101.59577
H         81.91505        3.80340      102.64725
N         79.07127        2.18258      102.10770
C         77.74176        1.85939      102.61792
C         77.46878        0.37387      102.83229
O         76.53321        0.07522      103.56094
C         76.69410        2.49831      101.67866
C         76.93692        2.20885      100.21269
O         77.16291        3.13086       99.44517
O         76.93991        0.95186       99.73718
H         79.37397        1.74242      101.22825
H         77.59536        2.32256      103.61958
H         76.76046        3.60131      101.80995
H         75.67020        2.19284      101.97017
N         78.17521       -0.61606      102.21771
C         77.86835       -2.03409      102.38647
C         76.50963       -2.46738      101.83873
O         76.20375       -3.64452      101.95707
H         78.96157       -0.36992      101.60910
H         77.92677       -2.28999      103.46733
H         78.63821       -2.63347      101.85526
N         75.64776       -1.59481      101.23214
C         74.31413       -1.91229      100.72814
C         74.29394       -2.83815       99.51630
O         73.19615       -3.10231       99.04344
C         73.39180       -2.44192      101.85398
C         73.24713       -1.47837      103.04656
C         72.64828       -0.14956      102.64925
N         73.29979        1.00895      102.90285
O         71.55555       -0.11908      102.10322
H         75.91343       -0.61391      101.14259
H         73.86266       -0.96335      100.36007
H         73.76475       -3.41726      102.22805
H         72.37607       -2.62113      101.43765
H         74.23500       -1.33450      103.53256
H         72.57242       -1.94937      103.79257
H         74.20916        1.00927      103.38235
H         72.88777        1.91402      102.63161
N         75.42263       -3.33185       98.92059
C         75.37102       -4.18499       97.72961
C         76.02064       -3.52827       96.51528
O         75.96864       -4.12678       95.44968
C         76.00244       -5.57976       98.01059
C         77.51822       -5.51595       98.26862
C         75.29789       -6.27559       99.18399
H         76.34666       -3.09100       99.30229
H         74.31358       -4.36667       97.43735
H         75.84779       -6.21261       97.10762
H         77.75326       -4.91936       99.17346
H         77.91982       -6.54204       98.41193
H         78.04501       -5.07236       97.39737
H         75.70893       -7.29784       99.32633
H         75.44136       -5.70619      100.12682
H         74.20957       -6.36458       98.98156
N         76.66464       -2.32452       96.59233
C         77.35017       -1.70878       95.46095
C         76.82013       -0.30505       95.20759
O         76.23414        0.29491       96.09799
C         78.85569       -1.67699       95.79808
C         79.71895       -1.05864       94.72987
N         80.46751        0.03572       95.00273
O         79.75657       -1.55706       93.61502
H         76.72221       -1.83101       97.49350
H         77.19924       -2.31113       94.53783
H         79.20701       -2.71879       95.96507
H         78.99053       -1.12039       96.75119
H         80.45639        0.46821       95.93866
H         81.06908        0.44867       94.27661
N         76.99279        0.27631       93.98544
C         76.60964        1.65389       93.69189
C         76.66300        1.90869       92.19849
O         77.68900        1.65221       91.58297
C         77.54685        2.63292       94.44166
C         77.29032        4.08502       94.08999
C         78.33223        4.88594       93.58770
C         76.01563        4.65342       94.25627
C         78.10418        6.22517       93.26150
C         75.78637        5.98980       93.91413
C         76.82750        6.78043       93.41818
O         76.58938        8.06825       93.09808
H         77.41903       -0.28951       93.23554
H         75.56311        1.82248       94.02483
H         78.60279        2.37395       94.20428
H         77.41085        2.50566       95.53560
H         79.32488        4.48104       93.45180
H         75.19493        4.06213       94.63950
H         78.92053        6.82809       92.88494
H         74.79706        6.41192       94.03591
H         77.28111        8.64962       92.75233
N         75.59218        2.47805       91.56700
C         75.58623        2.79320       90.14757
C         75.75308        4.29287       89.98676
O         74.86806        5.02238       90.41301
C         74.27279        2.33625       89.48073
C         74.02170        0.83247       89.63039
C         72.74742        0.44223       88.93609
O         71.57409        0.98449       89.31690
O         72.76811       -0.37009       88.02547
H         74.77689        2.76892       92.12843
H         76.41085        2.25796       89.65355
H         74.31775        2.59164       88.39820
H         73.41675        2.88649       89.93345
H         73.93287        0.56743       90.70594
H         74.87580        0.27101       89.19362
N         76.86441        4.86766       89.43984
C         78.03756        4.13975       88.96064
C         77.73381        3.37193       87.69052
O         77.27771        3.96571       86.72308
C         79.22414        5.09461       88.72334
C         79.69555        5.70233       90.05770
C         80.93789        6.53549       89.94585
O         81.48489        6.72840       88.87113
O         81.46960        7.05366       91.06824
H         76.89177        5.89968       89.42088
H         78.38141        3.43535       89.74851
H         78.95462        5.89127       87.99454
H         80.06762        4.50121       88.30446
H         79.92524        4.87461       90.76381
H         78.89220        6.32885       90.49507
N         78.00297        2.03601       87.62653
C         77.76385        1.21844       86.45621
H         77.30387        1.79157       85.62498
H         78.72835        0.79548       86.10361
H         77.08586        0.38246       86.72804
H         78.41750        1.56606       88.44575
Ca        83.38892        8.23749       91.01814
O         84.47417       10.98801       90.71767
H         85.10187       10.64864       90.03126
H         85.04640       11.47591       91.36128
O         81.64088       10.27826       89.48960
H         81.86770       10.69731       88.62195
H         81.00046        9.55949       89.25866
O         82.20136       11.40581       92.96144
H         81.40933       11.81505       93.39244
H         82.84686       12.15081       92.87025
O         84.89461        9.33627       93.99213
H         85.75679        9.74820       93.73341
H         85.14492        8.61227       94.61977
O         80.13404        9.37897       92.13233
H         79.35409        9.62751       91.57576
H         79.78009        9.33235       93.05554

Ca 1.0



