%chk=apoCaM-CA-Ng.loop3.water4.frame124.chk
%nprocshared=20
%mem=10GB
%nosave
#b3lyp/svp scf=(tight,noincore,xqc) Test 
#IOP(5/87=12) Density=Current Pop=(MK,readradii) iop(6/33=2) iop(6/42=6)

apoCaM-CA-Ng.loop3.water4.frame124 

   0  1 
C         53.44385       71.52739       -5.30570
C         53.83374       72.85978       -4.73187
O         52.95293       73.61466       -4.34782
H         52.79696       71.67284       -6.19485
H         54.33517       70.93723       -5.60798
H         52.88798       70.94542       -4.54008
N         55.15072       73.20339       -4.62646
C         55.66525       74.42604       -4.00923
C         55.35100       75.71273       -4.76923
O         55.81249       76.75039       -4.31196
C         55.18443       74.55360       -2.54255
C         55.47671       73.32063       -1.73540
O         54.56338       72.69875       -1.21571
O         56.74515       72.89973       -1.57412
H         55.85588       72.52449       -4.95244
H         56.77565       74.34243       -3.99492
H         54.09285       74.75602       -2.51670
H         55.69037       75.41577       -2.05739
N         54.58115       75.75633       -5.89920
C         54.21758       77.01130       -6.55160
C         52.72500       77.21596       -6.40087
O         51.96520       76.42534       -6.94629
C         54.57594       76.99921       -8.05408
C         56.06320       76.82955       -8.40013
C         56.94635       77.95638       -7.84334
C         58.35636       77.97282       -8.46268
N         59.09441       76.72897       -8.24133
H         54.18767       74.89009       -6.29032
H         54.73118       77.87193       -6.07313
H         54.22623       77.95437       -8.50579
H         54.02412       76.17071       -8.55159
H         56.12775       76.84658       -9.51066
H         56.42919       75.84246       -8.04498
H         57.01513       77.86570       -6.73829
H         56.48142       78.93642       -8.08705
H         58.92267       78.81876       -8.01385
H         58.27681       78.16188       -9.55681
H         59.16020       76.52162       -7.21915
H         58.63457       75.93576       -8.74278
H         60.05918       76.83848       -8.63024
N         52.22856       78.23583       -5.63864
C         50.79754       78.43029       -5.43986
C         50.45258       79.91139       -5.41713
O         51.03662       80.64141       -4.62753
C         50.34355       77.72999       -4.13695
C         48.83671       77.61153       -4.06617
O         48.14060       78.06014       -4.96405
O         48.22642       76.93385       -3.07562
H         52.88737       78.83176       -5.11325
H         50.24821       77.93366       -6.27053
H         50.75461       78.24893       -3.24466
H         50.73823       76.69096       -4.14455
N         49.49991       80.42793       -6.24765
C         49.15026       81.84078       -6.25478
C         48.50521       82.34630       -4.97156
O         48.37061       83.55599       -4.85850
H         49.02831       79.80860       -6.92364
H         48.45003       82.05533       -7.09103
H         50.08134       82.41949       -6.44006
N         48.06254       81.51302       -3.97956
C         47.51022       82.00129       -2.71133
C         48.30905       81.49806       -1.50388
O         47.97369       81.86854       -0.38657
C         46.00518       81.68258       -2.59792
C         45.68241       80.22272       -2.45363
N         45.03473       79.77247       -1.35616
O         45.98222       79.44199       -3.34117
H         48.11317       80.49763       -4.12483
H         47.57045       83.11070       -2.68270
H         45.47847       82.07762       -3.49374
H         45.60376       82.22868       -1.71615
H         44.75960       80.40970       -0.59387
H         44.80041       78.77750       -1.27480
N         49.41075       80.70517       -1.65195
C         50.29183       80.31362       -0.56727
C         49.67174       79.34338        0.40421
O         49.64072       79.63907        1.58918
H         49.70761       80.41601       -2.58860
H         50.65551       81.22430       -0.04220
H         51.17919       79.80181       -0.99938
N         49.20848       78.13447       -0.02652
C         48.72557       77.09373        0.87994
C         47.24142       76.87138        0.67138
O         46.67329       77.46686       -0.22947
C         49.48435       75.75953        0.65688
C         50.99350       75.86132        0.70413
C         51.70311       76.46292       -0.35191
C         51.71366       75.30981        1.77771
C         53.09767       76.52191       -0.32990
C         53.11142       75.37414        1.80010
C         53.80767       75.98008        0.74413
O         55.15446       76.04092        0.74663
H         49.21036       77.94136       -1.03600
H         48.87119       77.41167        1.93439
H         49.21261       75.31479       -0.32416
H         49.14155       75.04673        1.43761
H         51.18633       76.86859       -1.20811
H         51.19574       74.83100        2.59926
H         53.62629       76.98211       -1.15556
H         53.65209       74.94802        2.63561
H         55.68558       75.67159        1.46616
N         46.54147       76.01298        1.47564
C         45.11286       75.78215        1.28465
C         44.37405       77.08554        1.52881
O         43.77388       77.58905        0.59559
C         44.56187       74.62140        2.16926
C         45.32855       73.28261        1.96715
C         43.05740       74.39181        1.90663
C         45.27217       72.70256        0.54695
H         47.03956       75.52224        2.22903
H         44.96016       75.47027        0.23454
H         44.68114       74.90752        3.23724
H         44.90616       72.52673        2.66474
H         46.39464       73.40816        2.24251
H         42.66755       73.58987        2.56869
H         42.46748       75.29752        2.10377
H         42.86062       74.12150        0.84990
H         45.83821       71.74854        0.52027
H         44.23097       72.47720        0.23977
H         45.73318       73.39160       -0.18940
N         44.41240       77.71925        2.73591
C         43.78128       79.02064        2.95651
C         42.26732       78.99348        2.79577
O         41.70652       80.03482        2.48616
C         44.14705       79.58883        4.33325
O         43.67476       78.73997        5.34481
H         44.95770       77.28871        3.49888
H         44.19289       79.72077        2.19321
H         43.70072       80.60049        4.45742
H         45.25701       79.67678        4.38667
H         44.20826       78.94557        6.15558
N         41.54192       77.84834        2.98180
C         40.09078       77.75205        2.80996
C         39.63311       78.07157        1.38528
O         38.43333       78.18433        1.16996
C         39.37600       78.63498        3.84396
H         42.03562       77.00166        3.28410
H         39.77214       76.70843        3.02925
H         39.69692       78.34336        4.86695
H         39.58754       79.71189        3.69389
H         38.27677       78.48538        3.77836
N         40.52232       78.20146        0.35814
C         40.16715       78.58539       -0.99911
C         40.47533       77.47727       -1.98515
O         41.00719       76.44453       -1.60215
C         40.96845       79.84057       -1.36763
H         41.51230       78.02510        0.53194
H         39.08120       78.81120       -1.06955
H         40.74827       80.65711       -0.64874
H         42.05913       79.62153       -1.32739
H         40.72133       80.19565       -2.38901
N         40.12076       77.62825       -3.29331
C         40.38149       76.65717       -4.34996
C         39.72353       75.30042       -4.10934
O         39.99711       74.38348       -4.87205
C         41.89629       76.53107       -4.66492
C         42.53821       77.90765       -4.93504
C         43.74153       77.80313       -5.83758
O         43.66045       78.27853       -6.95929
O         44.89499       77.19092       -5.50325
H         39.62980       78.49209       -3.57053
H         39.93137       77.05229       -5.28911
H         41.95870       75.92459       -5.59670
H         42.46189       75.98863       -3.88560
H         42.76043       78.44532       -3.98761
H         41.79681       78.52031       -5.49507
N         38.81334       75.10329       -3.10926
C         38.18003       73.82779       -2.84368
H         37.08303       73.92549       -2.98198
H         38.55090       73.02022       -3.50852
H         38.38420       73.53424       -1.79262
H         38.52264       75.88517       -2.50767
Ca        46.06617       76.62091       -3.65934
O         44.01144       76.18366       -1.90222
H         43.45025       76.99524       -1.97007
H         43.38444       75.44801       -1.69150
O         47.70591       74.83889       -5.54126
H         47.60035       75.26165       -6.43029
H         48.68024       74.68753       -5.45109
O         47.96115       74.05644       -2.37799
H         47.88652       73.07502       -2.48130
H         48.89047       74.26422       -2.65014
O         44.89814       73.72907       -3.52530
H         44.37481       73.94158       -4.33861
H         45.57494       73.07354       -3.82882

Ca 1.0



