%chk=apoCaM-CA-Ng.loop2.water3.frame221.chk
%nprocshared=20
%mem=10GB
%nosave
#b3lyp/svp scf=(tight,noincore,xqc) Test 
#IOP(5/87=12) Density=Current Pop=(MK,readradii) iop(6/33=2) iop(6/42=6)

apoCaM-CA-Ng.loop2.water3.frame221 

   -2  1 
C         -5.29572       30.78848       88.49024
C         -5.90178       29.49591       88.94949
O         -5.41215       28.43880       88.57689
H         -4.42596       30.60183       87.82469
H         -6.05274       31.37952       87.93402
H         -4.95172       31.37153       89.37068
N         -6.97862       29.50842       89.78445
C         -7.59892       28.28627       90.29680
C         -8.20181       27.47943       89.13635
O         -8.37262       28.02728       88.05482
C         -8.66270       28.68757       91.36016
C         -9.19743       27.61660       92.27751
O         -8.75515       26.48222       92.27619
O        -10.13640       27.94873       93.18365
H         -7.34007       30.42694       90.08847
H         -6.79077       27.70352       90.79239
H         -9.51009       29.18357       90.83924
H         -8.20450       29.43393       92.04651
N         -8.51781       26.16072       89.27828
C         -9.08105       25.33948       88.20880
C         -8.10942       25.21909       87.05245
O         -6.97251       24.82731       87.27816
C         -9.39798       23.93572       88.73563
H         -8.33140       25.70499       90.17700
H        -10.04235       25.78575       87.86994
H        -10.12319       24.00269       89.57428
H         -9.85067       23.32017       87.92881
H         -8.47613       23.43247       89.09928
N         -8.49888       25.52545       85.78064
C         -7.59415       25.47233       84.63605
C         -8.06332       24.45906       83.59796
O         -9.19482       23.99758       83.65247
C         -7.53835       26.89310       84.03269
C         -6.60255       27.04246       82.86926
O         -5.28267       26.82231       83.02238
O         -7.03801       27.37861       81.78006
H         -9.47214       25.82746       85.61720
H         -6.57784       25.16714       84.96662
H         -7.22056       27.60393       84.82148
H         -8.56511       27.18083       83.71043
N         -7.21593       24.08851       82.59620
C         -7.62356       23.26369       81.46968
C         -6.48349       23.09449       80.48365
O         -6.17781       21.97348       80.10329
H         -6.25070       24.44539       82.62332
H         -8.45085       23.78538       80.94236
H         -7.99172       22.27297       81.81682
N         -5.79513       24.19067       80.05128
C         -4.68644       24.16455       79.09660
C         -3.61672       23.15059       79.48495
O         -3.07976       23.20549       80.58232
C         -4.06573       25.56998       78.98033
C         -5.03706       26.55345       78.37266
N         -5.48537       27.61423       79.07977
O         -5.42257       26.38705       77.22533
H         -6.07272       25.10420       80.44131
H         -5.08524       23.87674       78.09978
H         -3.16193       25.54439       78.33414
H         -3.75591       25.89732       79.99733
H         -5.18440       27.75637       80.05128
H         -6.14680       28.28526       78.66140
N         -3.29240       22.16681       78.59734
C         -2.37887       21.06925       78.85742
C         -0.93393       21.47915       79.01865
O         -0.38291       22.10437       78.12202
H         -3.76926       22.15365       77.68295
H         -2.40679       20.38763       77.97958
H         -2.73902       20.49145       79.73485
N         -0.22990       21.06110       80.10880
C          1.20967       21.25382       80.26976
C          1.57867       22.72525       80.26133
O          2.42404       23.11500       79.47177
C          1.76822       20.50249       81.51928
C          1.19892       20.92433       82.88572
O          1.62395       19.11269       81.34857
H         -0.74033       20.52452       80.82506
H          1.72724       20.78228       79.40229
H          2.86224       20.69928       81.56131
H          0.66671       18.87971       81.46267
H          1.67457       20.31754       83.68526
H          1.42617       21.97997       83.10860
H          0.10240       20.76707       82.93942
N          0.95263       23.59960       81.09316
C          1.24975       25.03071       81.13168
C          0.02278       25.81073       80.69856
O         -1.01390       25.21621       80.45654
C          1.73651       25.44284       82.56023
C          0.66691       25.15243       83.65466
C          3.08294       24.75977       82.86259
C          1.07993       25.57257       85.06561
H          0.20361       23.24010       81.69757
H          2.05241       25.28692       80.40687
H          1.93453       26.53689       82.56090
H          0.42354       24.07310       83.70077
H         -0.26227       25.70630       83.40031
H          3.50855       25.11765       83.82151
H          2.97812       23.65820       82.90688
H          3.82102       25.01193       82.07188
H          1.94629       24.97788       85.42130
H          1.32751       26.65352       85.09677
H          0.23927       25.37649       85.76518
N          0.07607       27.17186       80.60611
C         -1.10104       27.98621       80.33523
C         -0.84671       28.89908       79.13460
O         -1.29522       30.03383       79.14163
C         -1.37386       28.73668       81.66240
C         -2.69247       29.43251       81.80144
O         -3.60293       29.43465       80.81685
O         -2.96418       29.97203       82.86216
H          0.96129       27.65571       80.81260
H         -1.97306       27.34457       80.10532
H         -0.54780       29.45480       81.85785
H         -1.36563       27.97769       82.47732
N         -0.08349       28.47381       78.08130
C          0.36289       29.34609       76.98788
C          1.20996       30.48613       77.56196
O          2.13365       30.19137       78.30857
C          1.25727       28.54857       76.00060
C          1.85913       29.45106       74.94071
C          1.09052       29.93602       73.86784
C          3.20201       29.85481       75.05695
C          1.65723       30.81837       72.93788
C          3.75876       30.74274       74.13419
C          2.98753       31.22579       73.07582
H          0.25348       27.49873       78.09012
H         -0.51460       29.72817       76.42550
H          0.70587       27.70922       75.52328
H          2.08067       28.09608       76.59596
H          0.05397       29.64348       73.75813
H          3.81086       29.50634       75.88168
H          1.06337       31.19759       72.11618
H          4.78651       31.06334       74.24732
H          3.42132       31.91868       72.36596
N          1.00883       31.80247       77.23393
C          1.85693       32.88883       77.70694
C          1.37386       33.42690       79.04829
O          1.83199       34.48642       79.45396
C          1.67032       33.93609       76.60313
C          0.19225       33.80103       76.29753
C          0.02673       32.28426       76.27690
H          2.93722       32.62574       77.75318
H          2.01638       34.96039       76.86020
H          2.23330       33.59833       75.70133
H         -0.36761       34.21219       77.16706
H         -0.15641       34.31653       75.37774
H         -1.01791       32.00658       76.53087
H          0.29386       31.90187       75.27701
N          0.45024       32.75305       79.78908
C         -0.15643       33.26762       81.00265
C          0.49756       32.65655       82.23671
O          0.16786       33.06889       83.33925
C         -1.67098       32.95414       80.92769
C         -2.54317       33.70004       81.94289
C         -3.97523       33.25070       81.84096
O         -4.59302       32.72880       82.91815
O         -4.58570       33.35502       80.78843
H          0.15095       31.82389       79.48879
H         -0.00752       34.36887       81.04075
H         -1.80160       31.85849       81.04509
H         -2.04358       33.22996       79.91538
H         -2.48539       34.78988       81.73428
H         -2.19734       33.51408       82.97735
N          1.45178       31.68371       82.13882
C          2.10217       31.12798       83.30434
H          2.65410       31.92742       83.84303
H          1.34928       30.67097       83.98031
H          2.82650       30.34426       82.99501
H          1.73805       31.31272       81.22187
Ca        -5.63428       30.26462       81.34140
O         -7.90336       31.57594       79.99638
H         -8.59441       31.25188       80.62685
H         -7.60673       30.76185       79.51660
O         -5.56097       29.79873       84.91738
H         -6.41763       29.84328       85.41202
H         -5.14892       28.94818       85.21274
O         -7.88384       31.56857       83.49516
H         -8.69492       31.99314       83.11833
H         -8.03119       31.58153       84.47410

Ca 1.0



