%chk=apoCaM-CA-Ng.loop1.water2.frame1294.chk
%nprocshared=20
%mem=10GB
%nosave
#b3lyp/svp scf=(tight,noincore,xqc) Test 
#IOP(5/87=12) Density=Current Pop=(MK,readradii) iop(6/33=2) iop(6/42=6)

apoCaM-CA-Ng.loop1.water2.frame1294 

   0  1 
C         59.50622       25.47878      101.16682
C         58.98399       26.65515      101.93258
O         58.24748       27.45416      101.37091
H         60.61699       25.50719      101.15936
H         59.16611       24.54013      101.64976
H         59.14477       25.50065      100.11663
N         59.36667       26.84255      103.22643
C         58.97312       28.00266      104.01448
C         60.18509       28.88644      104.19889
O         60.58130       29.19512      105.31492
C         58.25907       27.60337      105.32804
C         59.08047       26.76047      106.26857
O         59.38531       27.22661      107.49472
O         59.43631       25.63788      105.94928
H         60.02742       26.16795      103.63859
H         58.24227       28.62473      103.45256
H         57.32614       27.05166      105.08379
H         57.96473       28.53958      105.85336
N         60.79913       29.36759      103.08230
C         61.90083       30.31630      103.10477
C         61.48325       31.57468      103.85283
O         62.17793       31.92338      104.79638
C         62.39484       30.68152      101.67620
C         62.82830       29.49245      100.79767
C         64.03563       28.72525      101.35324
C         64.42777       27.52141      100.47741
N         64.83868       27.91071       99.12650
H         60.42365       29.07229      102.17010
H         62.75854       29.85785      103.64284
H         63.24735       31.39097      101.76135
H         61.60125       31.20290      101.11415
H         63.09292       29.91256       99.80491
H         61.98067       28.79276      100.64785
H         63.78688       28.32444      102.35736
H         64.90176       29.41515      101.45263
H         63.57592       26.80772      100.41688
H         65.27572       26.99963      100.97320
H         65.17140       27.06032       98.61739
H         64.03393       28.30689       98.59136
H         65.61915       28.60519       99.17061
N         60.37011       32.31584      103.55735
C         59.37832       32.03347      102.51503
C         58.01251       31.73918      103.11935
O         57.84643       31.80747      104.33039
C         59.37109       33.15744      101.46493
C         59.32595       34.50851      102.08910
O         58.28491       34.87220      102.85678
O         60.27495       35.26087      101.94182
H         60.19672       33.14355      104.15061
H         59.61394       31.11942      101.95857
H         58.53718       33.03436      100.74266
H         60.31859       33.09544      100.88743
N         57.01577       31.27271      102.31334
C         55.77043       30.71304      102.81309
C         54.83263       31.69903      103.46067
O         55.10889       32.88852      103.51341
H         57.19481       31.18683      101.30131
H         56.01280       29.91014      103.54256
H         55.21977       30.24966      101.96629
N         53.67692       31.21787      104.00404
C         52.69577       32.04045      104.70257
C         51.27914       31.50583      104.46966
O         51.11953       30.30247      104.32718
C         52.97428       31.97132      106.21803
C         54.33976       32.49182      106.56950
O         55.24245       31.67665      107.14706
O         54.63630       33.65317      106.33927
H         53.54423       30.19507      104.00466
H         52.77841       33.09738      104.36939
H         52.89027       30.91447      106.55468
H         52.22318       32.56832      106.77749
N         50.17042       32.29531      104.56975
C         50.21579       33.73342      104.72497
C         50.47982       34.40932      103.40414
O         50.49461       33.75460      102.37077
H         49.24019       31.84779      104.54002
H         50.94616       34.02261      105.50733
H         49.21980       34.09900      105.05909
N         50.62259       35.75716      103.36858
C         50.66106       36.52929      102.13087
C         51.78809       36.19304      101.15171
O         51.72825       36.74979      100.06301
C         50.60753       38.05537      102.43650
C         51.79725       38.56115      103.26382
O         49.42611       38.35692      103.13381
H         50.59261       36.25470      104.27118
H         49.72663       36.28594      101.57746
H         50.61300       38.62631      101.47857
H         48.68105       38.28724      102.48047
H         51.69795       39.65707      103.42008
H         51.82616       38.09440      104.26877
H         52.75683       38.35970      102.74488
N         52.82313       35.33016      101.40864
C         53.84174       35.04383      100.39278
C         55.10308       35.78662      100.74873
O         55.70784       35.50002      101.77113
C         54.11228       33.52182      100.19577
C         52.83435       32.70121       99.89958
C         55.17632       33.28515       99.10090
C         52.06112       33.13219       98.65088
H         52.92691       34.90897      102.34304
H         53.50664       35.42576       99.40705
H         54.53047       33.11358      101.13318
H         52.15480       32.76726      100.77077
H         53.11644       31.63053       99.78885
H         55.37767       32.19902       98.98283
H         54.85107       33.69899       98.12401
H         56.13872       33.76852       99.37166
H         52.68619       33.04600       97.73934
H         51.17720       32.47282       98.52515
H         51.69520       34.17370       98.75265
N         55.53960       36.77906       99.92474
C         56.73420       37.57252      100.15590
C         56.38214       39.03869      100.44405
O         57.29695       39.82295      100.65185
C         57.72793       37.37812       98.97933
C         57.18773       37.84331       97.62381
O         58.06571       36.01807       98.86787
H         54.97968       37.00149       99.08900
H         57.27086       37.20198      101.04201
H         58.65243       37.96702       99.18209
H         58.64086       35.79556       99.64512
H         57.96776       37.69215       96.84696
H         56.30084       37.25104       97.31721
H         56.92154       38.91920       97.65433
N         55.08392       39.47702      100.50263
C         54.70019       40.86206      100.78937
C         55.07652       41.25311      102.21405
O         54.55288       40.65855      103.14626
C         53.16993       41.03327      100.59144
C         52.68713       42.45804      100.88368
O         52.83589       40.69634       99.26917
H         54.32345       38.80769      100.31951
H         55.21302       41.52535      100.05772
H         52.65512       40.34127      101.29462
H         51.89923       40.36538       99.28212
H         53.18677       43.18389      100.20913
H         51.58863       42.51667      100.73171
H         52.89321       42.73549      101.93839
N         55.98031       42.25318      102.44910
C         56.40038       42.70288      103.77918
C         56.79179       41.50896      104.63739
O         56.24555       41.32015      105.71794
C         55.30109       43.52934      104.48828
C         54.81975       44.80635      103.78439
C         55.95944       45.78257      103.44600
C         55.45101       47.19191      103.09143
N         54.98274       47.91461      104.27993
H         56.44265       42.69238      101.63839
H         57.29424       43.35346      103.65833
H         55.70829       43.84193      105.47637
H         54.41037       42.89021      104.67372
H         54.10790       45.27090      104.49555
H         54.25939       44.56750      102.85515
H         56.50878       45.36310      102.57488
H         56.67289       45.87905      104.29214
H         54.64675       47.13778      102.32423
H         56.29845       47.76661      102.65756
H         55.76094       47.99219      104.97590
H         54.69256       48.88009      104.00461
H         54.16596       47.44223      104.72502
N         57.66589       40.59428      104.15259
C         57.81374       39.28384      104.76454
C         58.14066       38.29970      103.61946
O         57.17540       37.31922      103.35575
C         58.78066       39.32161      105.97770
C         58.92214       37.98856      106.73387
C         57.76229       37.65501      107.64673
O         57.53675       38.34468      108.62754
O         57.02383       36.55267      107.42814
H         58.04842       40.75870      103.20842
H         56.81153       38.97189      105.13579
H         58.47244       40.10807      106.69953
H         59.78073       39.61255      105.62032
H         59.81431       38.05001      107.39299
H         59.11818       37.17336      106.00591
N         59.51150       37.89003      103.30276
C         60.36301       39.00191      102.87752
H         61.27147       38.59218      102.38363
H         59.84521       39.65991      102.14815
H         60.72260       39.58912      103.73766
H         59.39664       37.33415      102.43017
Ca        56.77201       36.21627      105.26060
O         58.48151       33.91980      106.44438
H         59.10862       34.50404      106.94005
H         58.44270       33.08627      106.97721
O         53.82257       36.22272      104.53288
H         53.32947       35.84246      105.30233
H         54.13423       37.10745      104.85023

Ca 1.0



