%chk=apoCaM-CA-Ng.loop4.water5.frame623.chk
%nprocshared=20
%mem=10GB
%nosave
#b3lyp/svp scf=(tight,noincore,xqc) Test 
#IOP(5/87=12) Density=Current Pop=(MK,readradii) iop(6/33=2) iop(6/42=6)

apoCaM-CA-Ng.loop4.water5.frame623 

   -3  1 
C         96.45809       40.28691       -4.95507
C         97.93933       40.43491       -4.80370
O         98.68230       39.78091       -5.52166
H         96.01340       41.26877       -5.21975
H         96.21635       39.55389       -5.75367
H         96.02362       39.93210       -3.99701
N         98.44094       41.29500       -3.87219
C         99.86401       41.50754       -3.63860
C        100.49103       42.03853       -4.90944
O        101.36681       41.39210       -5.47064
C        100.56302       40.21872       -3.12947
C         99.83214       39.59378       -1.97532
O        100.40641       39.48131       -0.76697
O         98.70749       39.14902       -2.13703
H         97.77876       41.83493       -3.29375
H         99.97818       42.27534       -2.83988
H        101.60079       40.48127       -2.82432
H        100.62989       39.45252       -3.93007
N        100.05295       43.21752       -5.43847
C        100.51988       43.72266       -6.72656
C        101.45025       44.91930       -6.51478
O        101.49844       45.42391       -5.40137
C         99.29645       44.02024       -7.67011
C         98.46168       45.24092       -7.19483
C         98.42340       42.75931       -7.81690
C         97.33782       45.63177       -8.16086
H         99.35956       43.76650       -4.90887
H        101.13751       42.93170       -7.20034
H         99.66831       44.26831       -8.68082
H         99.13423       46.12161       -7.11735
H         98.01575       45.05294       -6.19660
H         99.04431       41.89984       -8.13718
H         97.93464       42.50093       -6.85483
H         97.63478       42.89949       -8.58418
H         97.74902       45.84276       -9.17114
H         96.56856       44.83664       -8.23435
H         96.83313       46.54829       -7.78828
N        102.25742       45.43669       -7.49227
C        102.37051       44.90743       -8.84682
C        103.76707       44.44072       -9.21504
O        103.86951       43.78227      -10.23423
C        101.84423       45.93740       -9.87109
C        102.62636       47.22833       -9.95136
O        102.25659       48.09985      -10.72081
O        103.72665       47.44135       -9.20334
H        102.82846       46.25705       -7.24238
H        101.75437       44.00296       -8.95263
H        100.79378       46.18533       -9.60701
H        101.84075       45.47519      -10.88256
N        104.88771       44.70371       -8.48297
C        106.19644       44.26154       -8.94426
C        106.57747       44.95655      -10.24111
O        106.78839       46.16059      -10.22401
H        104.82877       45.22248       -7.59611
H        106.17180       43.15711       -9.07455
H        106.97368       44.49005       -8.18392
N        106.65547       44.25416      -11.40955
C        107.03676       44.83932      -12.69801
C        105.87105       44.92888      -13.68243
O        106.10030       45.31845      -14.81946
C        108.24935       44.08158      -13.30456
C        108.07586       42.60879      -13.60329
O        106.94858       41.94259      -13.29921
O        108.99697       41.99833      -14.12114
H        106.40639       43.25617      -11.38108
H        107.37504       45.88962      -12.56065
H        109.10985       44.18041      -12.60948
H        108.52947       44.58577      -14.25586
N        104.58639       44.65392      -13.31438
C        103.45322       44.75260      -14.22003
C        103.44138       43.66597      -15.27447
O        102.55999       43.69524      -16.12074
H        104.38397       44.40741      -12.34791
H        103.45246       45.75852      -14.69255
H        102.50964       44.64897      -13.63922
N        104.35549       42.65155      -15.26403
C        104.40838       41.55592      -16.22060
C        103.11910       40.75739      -16.16766
O        102.51714       40.49640      -17.19891
C        104.76485       42.08148      -17.62660
C        106.15308       42.74443      -17.63793
C        106.43202       43.40972      -18.95977
N        106.43685       42.70187      -20.11259
O        106.65440       44.61119      -18.98898
H        105.05152       42.61704      -14.51662
H        105.21798       40.86005      -15.90200
H        103.99796       42.81512      -17.95205
H        104.76567       41.23783      -18.34905
H        106.93253       41.97980      -17.42693
H        106.20889       43.51832      -16.84245
H        106.25146       41.68903      -20.11438
H        106.62103       43.17293      -21.01061
N        102.65773       40.33179      -14.95452
C        101.42364       39.55703      -14.76040
C        101.20782       39.06489      -13.30584
O        100.21474       38.38772      -13.08502
C        100.18921       40.39070      -15.26443
C         98.90763       39.55295      -15.41838
C         99.92267       41.62130      -14.38560
H        103.24324       40.60276      -14.16486
H        101.51410       38.64510      -15.39048
H        100.39648       40.75684      -16.28650
H         98.11505       40.16502      -15.89865
H         99.10472       38.67634      -16.07226
H         98.49930       39.20336      -14.45180
H         99.09311       42.22362      -14.81354
H         99.63502       41.31481      -13.35876
H        100.82498       42.26507      -14.33018
N        102.05907       39.32855      -12.26569
C        101.78729       38.95231      -10.88419
C        102.78056       37.90250      -10.42839
O        103.59783       37.46097      -11.22685
C        101.79640       40.23629      -10.03077
C        100.69807       41.16078      -10.50673
N        100.98502       42.35347      -11.07570
O         99.53212       40.81080      -10.40034
H        102.94275       39.82820      -12.38920
H        100.78632       38.47853      -10.77871
H        102.79091       40.72688      -10.12198
H        101.62349       40.01850       -8.95587
H        101.95798       42.65072      -11.21420
H        100.22987       42.97196      -11.40674
N        102.70847       37.39322       -9.16785
C        103.46460       36.22381       -8.73335
C        102.48039       35.14338       -8.29961
O        101.30633       35.44008       -8.11386
C        104.42380       36.62813       -7.58640
C        105.22541       35.47122       -7.03195
C        105.06723       35.08382       -5.68950
C        106.12137       34.75773       -7.84860
C        105.77582       33.99275       -5.17927
C        106.82440       33.66203       -7.33655
C        106.65221       33.27347       -6.00377
O        107.32920       32.20857       -5.52855
H        102.03664       37.80680       -8.50235
H        104.06001       35.81793       -9.57927
H        103.81743       37.08731       -6.77435
H        105.12947       37.40415       -7.95517
H        104.38662       35.61760       -5.03795
H        106.26074       35.03641       -8.88529
H        105.63587       33.70271       -4.14547
H        107.49824       33.10919       -7.97908
H        107.23007       31.90114       -4.61602
N        102.89329       33.85725       -8.12099
C        102.03736       32.80850       -7.59434
C        102.67262       32.32084       -6.30532
O        103.65828       31.59938       -6.38297
C        101.90059       31.67121       -8.62755
C        101.02317       30.51638       -8.11952
C        100.98485       29.39520       -9.11735
O        101.45040       28.17735       -8.77799
O        100.53506       29.57854      -10.23711
H        103.86639       33.60620       -8.34005
H        101.02332       33.20266       -7.39991
H        102.91321       31.27860       -8.87159
H        101.45900       32.08341       -9.56198
H         99.99090       30.87933       -7.92563
H        101.43936       30.11901       -7.16923
N        102.26716       32.73079       -5.07054
C        101.21765       33.71094       -4.81148
C         99.83784       33.14052       -5.07345
O         99.52640       32.06842       -4.57244
C        101.31744       34.19846       -3.35428
C        100.36087       35.36925       -3.07518
C        100.57092       35.90489       -1.69322
O        101.65598       36.36472       -1.37530
O         99.56230       35.89378       -0.80222
H        102.81836       32.38939       -4.26634
H        101.40718       34.61181       -5.43695
H        102.35856       34.55782       -3.19254
H        101.12155       33.36171       -2.64706
H         99.30712       35.03524       -3.18781
H        100.54943       36.19255       -3.79895
N         98.93110       33.84951       -5.80048
C         97.58246       33.37680       -6.02317
H         97.00103       34.14167       -6.58110
H         97.60224       32.43715       -6.61315
H         97.07694       33.19586       -5.04963
H         99.19130       34.77434       -6.17542
Ca        99.12517       38.48083        0.79991
O         99.73000       40.57332        2.73737
H        100.61750       40.38724        2.33912
H         99.68264       39.97706        3.52645
O         96.45241       37.54363       -0.91272
H         96.04096       38.23905       -1.48524
H         96.40523       36.71576       -1.45359
O        102.11879       37.98618        1.59363
H        102.80109       38.49069        1.08408
H        101.59766       37.51090        0.90061
O         99.01223       35.94449        2.44276
H         98.03964       35.95012        2.62830
H         99.38606       36.62461        3.05797
O         96.45688       38.47860        2.10194
H         96.19852       38.48485        3.05736
H         96.06846       39.31049        1.73106

Ca 1.0



