%chk=apoCaM-CA-Ng.loop3.water4.frame210.chk
%nprocshared=20
%mem=10GB
%nosave
#b3lyp/svp scf=(tight,noincore,xqc) Test 
#IOP(5/87=12) Density=Current Pop=(MK,readradii) iop(6/33=2) iop(6/42=6)

apoCaM-CA-Ng.loop3.water4.frame210 

   0  1 
C         36.51508       49.76017       48.48621
C         37.46640       49.86456       47.33286
O         38.35278       50.70239       47.35581
H         35.47780       49.93388       48.12934
H         36.58088       48.74351       48.92795
H         36.75648       50.50954       49.26933
N         37.31945       49.03936       46.26330
C         38.18067       49.04530       45.08633
C         38.19535       50.41743       44.42764
O         39.25925       50.89646       44.05565
C         39.61407       48.55674       45.42661
C         39.67658       47.18899       46.05680
O         40.87536       46.67531       46.39033
O         38.66671       46.53657       46.26960
H         36.53231       48.37186       46.26805
H         37.74194       48.33220       44.35332
H         40.09737       49.27755       46.11765
H         40.21824       48.52385       44.49421
N         37.03875       51.12621       44.28429
C         36.98194       52.42899       43.63488
C         36.66928       53.50249       44.67702
O         35.71573       54.25453       44.51947
C         35.89228       52.35641       42.54699
C         35.88365       53.55886       41.58360
C         34.51387       53.71370       40.90126
C         33.48502       54.32761       41.87826
N         32.16717       54.45619       41.26375
H         36.16353       50.73678       44.66760
H         37.96296       52.67197       43.17115
H         34.93204       52.24444       43.08987
H         36.00561       51.43871       41.92754
H         36.68383       53.38072       40.83174
H         36.12005       54.51985       42.08502
H         34.17038       52.73082       40.50873
H         34.61687       54.41356       40.04466
H         33.84498       55.33687       42.18284
H         33.37973       53.72024       42.79991
H         32.22518       55.02989       40.39215
H         31.78587       53.50714       41.04651
H         31.52581       54.93007       41.94119
N         37.41929       53.60090       45.81041
C         37.13012       54.59001       46.84396
C         37.58401       55.96543       46.37744
O         38.58354       56.04662       45.67572
C         37.81221       54.20265       48.16934
C         37.30672       55.04803       49.30892
O         38.06435       55.75634       49.94859
O         36.00193       55.00934       49.63926
H         38.17767       52.91978       45.96402
H         36.03481       54.57174       47.04583
H         38.91291       54.26735       48.06030
H         37.56060       53.14959       48.41852
N         36.90457       57.09537       46.72431
C         37.29602       58.41649       46.24531
C         38.68692       58.87036       46.68101
O         39.18535       59.81685       46.09009
H         36.05599       57.00965       47.30137
H         36.55397       59.18072       46.56564
H         37.27502       58.38105       45.13489
N         39.35822       58.28348       47.71438
C         40.72309       58.64361       48.12623
C         41.63089       57.41420       48.26064
O         42.77665       57.57653       48.65864
C         40.71783       59.41020       49.46419
C         39.95814       58.64917       50.54711
N         40.34843       59.10951       51.86640
O         38.60756       58.91806       50.32746
H         38.86580       57.56341       48.26040
H         41.19372       59.32536       47.38490
H         40.25707       60.41711       49.33868
H         41.77164       59.58950       49.77093
H         41.35690       58.85832       51.99496
H         39.81950       58.52278       52.54678
N         41.20629       56.16091       47.94404
C         42.01929       54.96614       48.09325
C         42.22483       54.57827       49.54469
O         43.35198       54.34493       49.95494
H         40.27184       56.02812       47.54584
H         42.98088       55.07607       47.54589
H         41.46614       54.12149       47.62783
N         41.14275       54.43691       50.35858
C         41.16057       53.89605       51.71476
C         40.70741       54.91967       52.72857
O         39.59981       55.42696       52.61094
C         40.15975       52.72395       51.78501
C         40.68815       51.46542       51.16826
C         41.62900       50.70352       51.87678
C         40.22348       51.01209       49.92825
C         42.09102       49.49403       51.35808
C         40.69965       49.80603       49.40189
C         41.62965       49.04005       50.11994
O         42.08161       47.86692       49.63509
H         40.22751       54.69247       49.97117
H         42.17508       53.54640       52.00625
H         39.20517       53.04024       51.30384
H         39.90318       52.47097       52.83818
H         41.98186       51.03635       52.84535
H         39.50003       51.59660       49.37711
H         42.80092       48.90608       51.92487
H         40.34305       49.45889       48.44439
H         41.78156       47.51219       48.78710
N         41.50106       55.21960       53.80007
C         41.05620       56.05960       54.90213
C         41.77421       57.38455       54.81140
O         41.10338       58.37554       54.59085
C         41.24790       55.34228       56.27451
C         40.59879       53.93176       56.31897
C         40.72384       56.20012       57.44284
C         39.07026       53.91661       56.21915
H         42.44997       54.81798       53.85330
H         39.97534       56.26713       54.79003
H         42.33867       55.18655       56.42715
H         40.87921       53.43920       57.27610
H         41.01466       53.30961       55.49806
H         40.90087       55.68406       58.41046
H         41.23342       57.17231       57.48715
H         39.64138       56.41537       57.33699
H         38.73065       54.38647       55.27766
H         38.71130       52.86639       56.23948
H         38.60564       54.44091       57.07918
N         43.12883       57.49442       54.91377
C         43.80375       58.77526       54.70284
C         43.40461       59.83821       55.71955
O         43.54658       61.01173       55.40598
C         45.32738       58.60620       54.69744
O         45.69477       57.69337       53.69647
H         43.68836       56.64466       55.08183
H         43.50257       59.14009       53.69396
H         45.64894       58.24793       55.70408
H         45.81935       59.58153       54.48948
H         46.47190       57.18120       54.04030
N         42.90906       59.51066       56.95143
C         42.50269       60.48187       57.96664
C         41.33245       61.36217       57.52195
O         41.10943       62.39373       58.13900
C         43.71176       61.31983       58.41388
H         42.84622       58.51855       57.20363
H         42.16601       59.93222       58.87403
H         43.42785       61.98132       59.25999
H         44.52288       60.64685       58.76552
H         44.10352       61.95625       57.59603
N         40.51245       60.99414       56.49267
C         39.41782       61.81497       55.98454
C         38.07329       61.13755       56.18194
O         38.02404       60.00532       56.63767
C         39.66116       62.08629       54.49724
H         40.66250       60.09021       56.04352
H         39.38221       62.78466       56.52523
H         39.68140       61.12897       53.93099
H         38.86673       62.73345       54.07188
H         40.63931       62.59492       54.36323
N         36.92141       61.82701       55.91756
C         35.56769       61.30730       56.11342
C         35.27781       60.87052       57.55253
O         34.19525       60.34726       57.78418
C         35.23092       60.15853       55.13008
C         35.29060       60.57725       53.65109
C         34.60305       59.53286       52.80718
O         35.12634       58.30456       52.64192
O         33.53747       59.79585       52.27340
H         37.00167       62.79867       55.58234
H         34.84556       62.12356       55.88355
H         34.17287       59.87328       55.33021
H         35.85376       59.26215       55.31344
H         36.33470       60.75648       53.31301
H         34.72288       61.52683       53.53847
N         36.16144       61.04903       58.57667
C         35.89476       60.54947       59.90719
H         34.95918       60.99377       60.30583
H         35.79783       59.44240       59.87527
H         36.73643       60.80804       60.58393
H         37.04965       61.54540       58.43386
Ca        37.25267       58.20062       51.97388
O         35.76489       58.12540       49.52488
H         34.91938       57.61314       49.57330
H         35.48482       59.07318       49.48138
O         34.48227       55.55009       52.20714
H         33.78490       56.12807       51.80783
H         33.98103       54.90241       52.76280
O         37.00016       54.24239       53.21609
H         37.63881       53.49423       53.32322
H         36.19805       53.95110       53.71680
O         37.94449       57.92170       54.66872
H         37.96462       58.84126       54.30232
H         38.61892       57.94067       55.38937

Ca 1.0



