%chk=apoCaM-CA-Ng.loop3.water2.frame986.chk
%nprocshared=20
%mem=10GB
%nosave
#b3lyp/svp scf=(tight,noincore,xqc) Test 
#IOP(5/87=12) Density=Current Pop=(MK,readradii) iop(6/33=2) iop(6/42=6)

apoCaM-CA-Ng.loop3.water2.frame986 

   0  1 
C         61.10945      120.92683       84.81694
C         61.38320      122.25789       85.45167
O         60.44243      122.98506       85.73676
H         60.57041      121.07217       83.85922
H         62.05077      120.37211       84.61552
H         60.48689      120.31494       85.50325
N         62.65953      122.62916       85.74126
C         62.98104      123.87189       86.43883
C         62.72787      125.07763       85.52861
O         62.55555      124.86367       84.33560
C         64.45239      123.76475       86.91657
C         64.85102      124.59291       88.09460
O         66.01159      124.55119       88.46959
O         63.96479      125.28843       88.82302
H         63.41720      121.96274       85.52152
H         62.31625      123.92682       87.31093
H         65.12719      123.95725       86.05326
H         64.64776      122.72755       87.26737
N         62.69273      126.36556       85.99916
C         62.55542      127.52447       85.10836
C         63.81540      128.38869       85.10827
O         63.90422      129.29121       84.28805
C         61.26476      128.34175       85.38528
C         61.25344      129.21681       86.65745
C         59.94447      130.03920       86.71759
C         59.92496      131.13942       87.79586
N         60.02545      130.60960       89.15297
H         62.79358      126.53222       87.00702
H         62.45067      127.16005       84.06437
H         60.39307      127.65036       85.39215
H         61.13349      129.03362       84.52348
H         62.10852      129.92421       86.60621
H         61.35661      128.58816       87.56544
H         59.07709      129.35697       86.85587
H         59.81204      130.56737       85.74757
H         58.96737      131.70036       87.70168
H         60.75444      131.85852       87.61337
H         59.94390      131.40206       89.83132
H         59.25505      129.92670       89.33548
H         60.95459      130.15753       89.28782
N         64.83191      128.16319       85.99115
C         66.09835      128.88500       86.01604
C         67.25787      127.89368       85.87914
O         68.07896      128.09429       84.99509
C         66.15255      129.84164       87.23999
C         65.66779      129.26466       88.53823
O         64.58407      129.61415       88.97883
O         66.35854      128.33043       89.19944
H         64.71486      127.44212       86.71089
H         66.18117      129.57366       85.14473
H         65.43677      130.65952       86.99797
H         67.15340      130.30859       87.35259
N         67.35574      126.77202       86.65574
C         68.41758      125.77029       86.51805
C         69.20656      125.54499       87.80291
O         70.19361      124.82472       87.76458
H         66.61911      126.59723       87.34466
H         69.13869      126.07807       85.73094
H         67.97259      124.80222       86.20186
N         68.83998      126.14397       88.96812
C         69.58669      126.13857       90.21381
C         68.74646      125.59250       91.36791
O         67.64357      126.06873       91.59950
C         69.94716      127.61123       90.51716
C         70.39844      127.82099       91.94110
N         69.61194      128.52140       92.79502
O         71.44195      127.32480       92.33684
H         67.99230      126.70775       88.98202
H         70.53247      125.55599       90.13566
H         69.03373      128.22541       90.36422
H         70.71104      127.98301       89.79896
H         68.71076      128.91399       92.48014
H         69.87956      128.64692       93.78076
N         69.30997      124.70279       92.23322
C         68.75030      124.35181       93.52897
C         67.47079      123.55639       93.46774
O         67.44164      122.51618       92.82608
H         70.25784      124.34970       92.03146
H         68.61530      125.27941       94.12995
H         69.49331      123.72580       94.06721
N         66.39390      123.94920       94.20799
C         65.15039      123.18010       94.30943
C         64.40967      123.15420       92.98838
O         64.89901      123.73089       92.02919
C         64.25802      123.78206       95.42422
C         64.93258      123.67477       96.77239
C         65.20955      122.41013       97.32144
C         65.29294      124.82666       97.49120
C         65.84388      122.29926       98.56042
C         65.93004      124.71303       98.73177
C         66.20929      123.45151       99.26941
O         66.82717      123.35808      100.46406
H         66.48639      124.80778       94.77374
H         65.39166      122.13070       94.58222
H         63.28774      123.24889       95.50002
H         64.03622      124.84194       95.17326
H         64.93419      121.50741       96.79081
H         65.08953      125.81162       97.08992
H         66.05152      121.31709       98.96627
H         66.20958      125.60689       99.27485
H         67.04059      122.50388      100.86655
N         63.21449      122.48577       92.87296
C         62.41993      122.41423       91.64585
C         61.93267      123.81812       91.27825
O         62.73983      124.73051       91.19295
C         63.20726      121.66158       90.52886
C         62.42688      121.55617       89.19913
C         63.62840      120.25947       91.01644
C         61.13908      120.73116       89.22203
H         62.84239      121.99110       93.69592
H         61.51861      121.79769       91.85673
H         64.13222      122.22739       90.29328
H         63.09639      121.11649       88.42692
H         62.16257      122.57595       88.89167
H         62.74145      119.65041       91.29328
H         64.19696      119.72504       90.22655
H         64.27935      120.32939       91.91270
H         61.34606      119.67082       89.47037
H         60.40598      121.14746       89.93931
H         60.68192      120.75719       88.20973
N         60.61163      124.07651       91.05910
C         60.09583      125.43264       90.86292
C         58.86572      125.73895       91.71070
O         58.40998      126.87213       91.65893
C         59.75341      125.65900       89.38376
O         60.88604      125.47574       88.58795
H         59.96401      123.27799       90.99404
H         60.87035      126.17975       91.14352
H         59.35864      126.68791       89.21669
H         58.97077      124.94204       89.05920
H         61.50941      126.20949       88.82569
N         58.23263      124.79085       92.46737
C         56.97691      125.06796       93.15821
C         57.16778      126.04093       94.31440
O         58.29575      126.20190       94.76068
C         56.38667      123.75479       93.68757
H         58.59467      123.83092       92.49873
H         56.27835      125.48855       92.40448
H         57.08359      123.28389       94.41345
H         55.41962      123.91673       94.19274
H         56.22202      123.05177       92.84308
N         56.13534      126.73931       94.88064
C         54.79213      126.83691       94.31428
C         53.76463      127.21274       95.38152
O         53.99725      128.18923       96.08088
C         54.79061      127.93848       93.24567
H         56.38236      127.39911       95.63529
H         54.51064      125.90285       93.80386
H         53.78070      128.02509       92.78944
H         55.06875      128.91943       93.68801
H         55.51439      127.70598       92.43750
N         52.55719      126.58229       95.53001
C         52.09150      125.47941       94.69574
C         52.77534      124.15711       94.99803
O         52.68833      123.26186       94.16891
C         50.55179      125.30418       94.74437
C         49.91163      124.66041       95.99845
C         50.01380      125.44333       97.27983
O         51.18970      125.56352       97.92285
O         49.00529      125.90174       97.79314
H         51.89817      127.01252       96.19213
H         52.30633      125.77464       93.64471
H         50.28477      124.62869       93.90075
H         50.06788      126.28360       94.53764
H         50.31699      123.64020       96.16699
H         48.83071      124.54631       95.75997
N         53.40876      123.93388       96.18596
C         54.01889      122.66612       96.53657
H         55.08448      122.83000       96.79717
H         53.49433      122.23752       97.41709
H         53.97006      121.92589       95.71029
H         53.43460      124.67452       96.90028
Ca        64.96578      126.83393       90.08767
O         63.36419      126.71336       93.12355
H         63.86787      126.98406       93.93089
H         62.41810      126.91212       93.33850
O         62.48618      128.26407       90.74770
H         61.83882      128.92706       91.09394
H         62.37162      128.28439       89.76513

Ca 1.0



