%chk=apoCaM-CA-Ng.loop2.water4.frame694.chk
%nprocshared=20
%mem=10GB
%nosave
#b3lyp/svp scf=(tight,noincore,xqc) Test 
#IOP(5/87=12) Density=Current Pop=(MK,readradii) iop(6/33=2) iop(6/42=6)

apoCaM-CA-Ng.loop2.water4.frame694 

   -2  1 
C         62.98207       83.06368       89.16448
C         62.55303       84.01299       90.24180
O         61.44747       84.52960       90.15878
H         63.98683       82.64118       89.37265
H         62.25126       82.23112       89.09562
H         63.01543       83.59938       88.19210
N         63.38742       84.32139       91.27558
C         63.00100       85.25741       92.32094
C         61.93904       84.62621       93.20355
O         62.25109       83.70074       93.94168
C         64.23782       85.68577       93.14085
C         63.90833       86.69634       94.20369
O         63.41606       87.77176       93.90152
O         64.17637       86.42589       95.49546
H         64.33523       83.91349       91.28863
H         62.60619       86.17430       91.82736
H         64.98268       86.13952       92.45080
H         64.70681       84.79401       93.61192
N         60.64845       85.05997       93.14437
C         59.57580       84.53037       93.98067
C         58.59154       83.72528       93.13236
O         58.71535       83.76559       91.91447
C         58.89856       85.73178       94.65663
H         60.40643       85.78968       92.45544
H         60.00198       83.86036       94.75137
H         58.08776       85.46643       95.34838
H         59.64971       86.30191       95.24136
H         58.46957       86.40435       93.88183
N         57.59117       82.94353       93.64732
C         57.34137       82.67995       95.06986
C         58.50054       81.91952       95.71986
O         59.36140       81.40834       95.01698
C         56.02623       81.85969       95.23879
C         56.12797       80.48346       94.62366
O         57.28782       80.13830       94.03792
O         55.19832       79.69468       94.68056
H         56.96907       82.48758       92.96018
H         57.18144       83.63270       95.59108
H         55.18565       82.41394       94.76629
H         55.79553       81.74486       96.31971
N         58.54649       81.77427       97.07451
C         59.51699       80.94853       97.78345
C         60.97237       81.28704       97.51108
O         61.24668       82.15692       96.69553
H         57.82591       82.24584       97.64056
H         59.36342       79.88780       97.49756
H         59.31413       81.05730       98.87043
N         61.99968       80.64913       98.14617
C         61.84468       79.69698       99.25013
C         62.44488       78.31934       98.98183
O         62.34652       77.47570       99.86531
C         62.45734       80.33710      100.52535
C         63.94891       80.62537      100.47858
N         64.54153       81.26083      101.51606
O         64.62731       80.29534       99.51682
H         62.95529       80.92273       97.87465
H         60.77472       79.51819       99.46629
H         62.26108       79.68454      101.40298
H         61.93148       81.30184      100.69916
H         63.99246       81.55488      102.33691
H         65.55138       81.46959      101.49542
N         63.11226       78.01241       97.83350
C         63.82750       76.75594       97.66583
C         62.98140       75.51584       97.43750
O         63.58425       74.45382       97.37788
H         63.22935       78.72784       97.10151
H         64.47719       76.60128       98.55565
H         64.49800       76.83850       96.78350
N         61.62954       75.54346       97.22788
C         60.87043       74.33153       96.88462
C         60.45566       74.37801       95.41938
O         60.58495       75.42342       94.79971
C         59.68942       74.11618       97.85944
C         60.19273       73.85740       99.28356
O         58.85022       75.24190       97.87611
H         61.13452       76.44743       97.23295
H         61.52683       73.43765       96.95413
H         59.11226       73.20825       97.56304
H         58.15103       75.09962       97.18705
H         60.79043       74.71555       99.65831
H         59.33284       73.70180       99.96967
H         60.82456       72.94341       99.30539
N         60.05870       73.23908       94.76743
C         59.87115       73.18404       93.31547
C         58.42324       72.86625       92.96533
O         57.91881       71.81105       93.31939
C         60.88784       72.18749       92.65709
C         60.65300       72.05320       91.12068
C         62.32912       72.66608       92.93910
C         61.56972       71.05975       90.40585
H         59.96618       72.36196       95.30176
H         60.10269       74.17007       92.88516
H         60.74600       71.18385       93.11310
H         60.79583       73.02354       90.62035
H         59.61253       71.71140       90.93974
H         62.50602       73.66237       92.47590
H         62.51562       72.74646       94.02938
H         63.08003       71.95450       92.54222
H         61.28092       71.00886       89.33317
H         62.62887       71.38614       90.43990
H         61.47021       70.04867       90.85002
N         57.72383       73.76118       92.20818
C         56.37056       73.61830       91.70974
C         56.35690       73.56970       90.17714
O         55.27228       73.45699       89.62264
C         55.53526       74.82781       92.17892
C         55.56014       74.99280       93.67244
O         56.00586       76.01635       94.16752
O         55.08992       74.01701       94.47140
H         58.18054       74.62312       91.93527
H         55.91554       72.67893       92.09349
H         54.48099       74.70959       91.84892
H         55.94200       75.75167       91.70821
N         57.50745       73.59788       89.42695
C         57.52723       73.39942       87.98222
C         58.40464       74.45053       87.27551
O         59.41349       74.07654       86.69330
C         58.00382       71.94250       87.75983
C         57.78403       71.40117       86.36779
C         56.48744       71.36136       85.82050
C         58.85445       70.87065       85.62820
C         56.26841       70.80629       84.55782
C         58.62846       70.30869       84.36641
C         57.33711       70.27683       83.83225
H         58.42110       73.62300       89.89253
H         56.50048       73.46755       87.57246
H         57.40328       71.28438       88.42593
H         59.06567       71.84426       88.07864
H         55.64003       71.74599       86.37301
H         59.85853       70.87293       86.03352
H         55.26684       70.77684       84.14794
H         59.45291       69.88829       83.80563
H         57.16220       69.83590       82.85944
N         58.07840       75.78530       87.24659
C         58.83412       76.81682       86.52788
C         60.29961       76.95333       86.90691
O         61.06936       77.46221       86.10384
C         58.11492       78.11563       86.91289
C         56.68749       77.64854       87.05086
C         56.85975       76.33088       87.80580
H         58.74310       76.59701       85.44067
H         58.43686       78.43430       87.93291
H         58.28248       78.96103       86.21080
H         55.99191       78.37033       87.52846
H         56.31919       77.42258       86.02324
H         57.00799       76.47500       88.89536
H         55.96257       75.70771       87.61059
N         60.73659       76.59795       88.14489
C         62.12748       76.73833       88.57517
C         62.98283       75.85058       87.69716
O         63.89618       76.33970       87.04772
C         62.40380       76.40340       90.07811
C         61.44756       77.08537       91.09835
C         60.17380       76.29792       91.25741
O         59.12792       76.68469       92.00648
O         60.08364       75.21361       90.71888
H         60.02600       76.23705       88.77052
H         62.41436       77.80717       88.45397
H         63.43675       76.76220       90.28074
H         62.43070       75.30704       90.27155
H         61.26136       78.13457       90.79066
H         61.92007       77.08952       92.10453
N         62.68450       74.52473       87.58727
C         63.39881       73.63683       86.69832
H         64.46363       73.56704       87.00061
H         62.94428       72.62298       86.73490
H         63.32738       74.01199       85.65454
H         61.89239       74.13721       88.12354
Ca        58.20286       78.30509       93.20285
O         56.57109       78.68694       90.71861
H         55.68723       78.44649       91.09364
H         57.09259       77.84766       90.76605
O         57.64922       77.90578       96.65330
H         58.28223       77.77780       97.40359
H         56.75907       77.93332       97.08558
O         59.70464       80.25709       91.59231
H         58.82131       80.70295       91.55718
H         60.19121       80.72430       92.31689
O         61.02510       78.56971       94.75405
H         61.69667       78.99158       94.16207
H         61.48273       77.76596       95.10408

Ca 1.0



