%chk=apoCaM-CA-Ng.loop4.water7.frame1052.chk
%nprocshared=20
%mem=10GB
%nosave
#b3lyp/svp scf=(tight,noincore,xqc) Test 
#IOP(5/87=12) Density=Current Pop=(MK,readradii) iop(6/33=2) iop(6/42=6)

apoCaM-CA-Ng.loop4.water7.frame1052 

   -3  1 
C         37.72342       87.94283       57.97711
C         39.06067       88.15244       57.32451
O         39.71983       87.17023       57.01777
H         36.91568       88.38080       57.35977
H         37.51807       86.85756       58.09590
H         37.72109       88.41133       58.98316
N         39.57348       89.39177       57.08878
C         38.89198       90.64301       57.40711
C         37.66285       90.83983       56.53836
O         36.59637       91.12085       57.06642
C         39.83580       91.84866       57.18319
C         41.04698       91.78911       58.07114
O         42.16546       91.76321       57.58278
O         40.90490       91.78035       59.41036
H         40.51802       89.44125       56.67358
H         38.60363       90.65737       58.48225
H         39.29130       92.79091       57.41419
H         40.16225       91.88987       56.12255
N         37.77023       90.75926       55.18278
C         36.71341       91.13857       54.24664
C         37.14748       92.34349       53.39921
O         36.32951       92.84000       52.63870
C         36.28061       89.93071       53.35968
C         37.46716       89.34145       52.54953
C         35.60228       88.86025       54.23445
C         37.05699       88.25539       51.55212
H         38.67552       90.46177       54.79600
H         35.81570       91.48425       54.80605
H         35.51329       90.30063       52.64342
H         38.22150       88.90698       53.23735
H         37.94916       90.15528       51.96652
H         35.18197       88.04137       53.61718
H         36.32031       88.42971       54.96243
H         34.75126       89.30796       54.79098
H         36.63277       87.36880       52.06492
H         36.31602       88.65546       50.82866
H         37.95281       87.91578       50.99033
N         38.40260       92.88054       53.50313
C         38.89805       94.05012       52.77668
C         40.32800       94.30068       53.24239
O         41.14143       93.39318       53.12452
C         38.87223       93.82807       51.24425
C         39.26101       95.05665       50.45680
O         39.55418       96.22151       51.06890
O         39.28303       95.00444       49.23798
H         39.05909       92.45330       54.16388
H         38.24997       94.91969       53.02424
H         37.85126       93.55763       50.91122
H         39.55044       92.98965       50.97801
N         40.70382       95.47451       53.82574
C         42.02134       95.64109       54.42551
C         43.18694       95.44720       53.47106
O         44.29971       95.32018       53.96218
H         40.02079       96.24142       53.91505
H         42.11130       94.86916       55.22202
H         42.10733       96.63498       54.91507
N         43.02595       95.40525       52.11497
C         44.10489       95.09220       51.18234
C         43.63756       93.93900       50.28852
O         42.61280       94.11827       49.64425
C         44.44366       96.33484       50.34541
C         45.60301       96.07186       49.42312
O         45.46788       96.19234       48.21647
O         46.79859       95.70590       49.92591
H         42.09682       95.59772       51.71546
H         45.01619       94.85043       51.75148
H         44.72897       97.16416       51.02917
H         43.55208       96.65776       49.76434
N         44.24471       92.71664       50.18968
C         45.47441       92.29569       50.84261
C         46.41414       91.57465       49.88315
O         46.04496       91.39380       48.73121
H         43.75856       92.00029       49.62647
H         45.17778       91.56821       51.62194
H         46.00287       93.12895       51.31125
N         47.62977       91.06011       50.26144
C         48.30944       91.25517       51.54428
C         47.38258       90.91375       52.68600
O         47.02720       91.77815       53.47644
C         48.91914       92.67938       51.62636
C         49.79070       93.03477       50.39886
C         51.02191       92.17878       50.19142
N         51.78248       92.36293       49.08767
O         51.34372       91.32496       51.00395
H         48.13975       90.49458       49.56377
H         49.16104       90.54709       51.59693
H         49.52207       92.77408       52.55598
H         48.11490       93.43695       51.67647
H         50.12534       94.08985       50.49122
H         49.15715       92.96676       49.48861
H         51.52678       93.07299       48.38582
H         52.62120       91.78569       48.92600
N         46.88953       89.65189       52.76939
C         45.76643       89.27689       53.61914
C         44.68335       88.66459       52.73736
O         44.87742       88.55401       51.53287
C         46.22339       88.35817       54.78736
C         47.11298       89.15121       55.75794
C         46.94769       87.08704       54.32332
H         47.27321       88.93593       52.13131
H         45.30484       90.17695       54.08278
H         45.32839       88.04894       55.36831
H         47.38370       88.52670       56.63512
H         48.04415       89.49432       55.25988
H         46.56374       90.04216       56.13456
H         47.20730       86.46030       55.20387
H         46.29664       86.48913       53.65550
H         47.88867       87.33517       53.78882
N         43.50904       88.23663       53.27379
C         42.44929       87.62428       52.47678
C         42.41441       86.11831       52.68423
O         41.59934       85.45602       52.05646
C         41.09990       88.25347       52.86734
C         41.13300       89.75562       52.75126
N         41.32961       90.35681       51.55656
O         40.99072       90.43693       53.75479
H         43.37187       88.30100       54.29387
H         42.63210       87.78775       51.39208
H         40.87770       87.98082       53.92457
H         40.28474       87.84778       52.23057
H         41.45007       89.80050       50.69899
H         41.36146       91.38360       51.48842
N         43.26535       85.51058       53.56012
C         43.26732       84.07773       53.83453
C         43.99581       83.78891       55.14309
O         44.59213       84.68992       55.71988
C         43.85512       83.30189       52.63002
C         45.29997       83.66631       52.36470
C         46.32920       83.06086       53.10457
C         45.63217       84.61383       51.38059
C         47.66482       83.39842       52.87015
C         46.96947       84.95816       51.15402
C         47.99062       84.35061       51.89959
O         49.28392       84.67213       51.69360
H         43.91042       86.10232       54.09258
H         42.21234       83.76647       54.00441
H         43.24772       83.53950       51.73095
H         43.76907       82.20206       52.76625
H         46.09779       82.32012       53.85714
H         44.85703       85.09738       50.79929
H         48.44726       82.91980       53.44595
H         47.21089       85.69861       50.40155
H         49.55341       85.33020       51.03732
N         43.92704       82.55851       55.71729
C         44.49396       82.28888       57.03372
C         43.34118       82.02549       57.98067
O         43.22866       80.95473       58.56032
C         45.54884       81.17803       56.90883
C         46.33669       80.96864       58.20915
C         47.49405       80.03974       57.98670
O         47.58114       78.88753       58.67656
O         48.37413       80.33610       57.19318
H         43.40083       81.80878       55.24117
H         45.02226       83.18353       57.42956
H         46.26840       81.51364       56.12978
H         45.08562       80.22642       56.56556
H         45.67174       80.55908       58.99736
H         46.74362       81.94108       58.56244
N         42.39392       82.99782       58.11323
C         41.15782       82.85190       58.86123
C         40.04184       82.69273       57.85161
O         39.37426       81.66784       57.87193
C         40.94738       84.07891       59.79022
C         39.58799       84.08529       60.52298
C         39.38170       82.94202       61.47855
O         40.26958       82.13886       61.71295
O         38.18697       82.79125       62.07669
H         42.51566       83.86817       57.57261
H         41.18782       81.92888       59.47617
H         40.98917       85.00593       59.17751
H         41.77322       84.13387       60.53293
H         38.77635       84.06300       59.76514
H         39.48257       85.03244       61.09514
N         39.81304       83.65013       56.90895
C         38.81702       83.51984       55.86682
H         38.09257       84.35609       55.94078
H         39.32274       83.56364       54.87881
H         38.26222       82.56001       55.92799
H         40.38630       84.50585       56.90519
Ca        37.85116       80.93896       63.31767
O         40.74072       80.46879       64.43808
H         40.92439       81.42416       64.25471
H         41.10115       80.31872       65.34782
O         37.69136       77.86569       63.06468
H         38.03608       77.08792       63.57080
H         37.21818       77.47024       62.29000
O         38.35833       83.09304       65.44100
H         38.65775       83.68599       64.70683
H         39.19255       82.69105       65.79104
O         35.44256       81.71846       64.74569
H         34.55108       81.71646       64.31521
H         35.29515       82.13341       65.63181
O         38.91943       79.57301       60.57248
H         38.88032       78.67677       60.15483
H         39.82035       79.91174       60.34159
O         35.53170       80.43898       61.20100
H         35.01214       81.18215       61.59979
H         35.30116       79.65084       61.75385
O         37.79762       79.58948       65.98155
H         38.49678       79.13784       66.51791
H         37.54095       80.37950       66.51992

Ca 1.0



