%chk=apoCaM-CA-Ng.loop2.water4.frame1057.chk
%nprocshared=20
%mem=10GB
%nosave
#b3lyp/svp scf=(tight,noincore,xqc) Test 
#IOP(5/87=12) Density=Current Pop=(MK,readradii) iop(6/33=2) iop(6/42=6)

apoCaM-CA-Ng.loop2.water4.frame1057 

   -2  1 
C          7.39908       67.84589       56.68558
C          6.48004       69.03218       56.60675
O          6.32684       69.57620       55.52288
H          8.23362       68.06486       57.38436
H          6.83895       66.95305       57.03218
H          7.83180       67.62149       55.68677
N          5.82409       69.52953       57.69350
C          5.90617       68.98973       59.04880
C          6.59811       70.00167       59.95734
O          7.30944       70.84874       59.43426
C          4.49946       68.52179       59.49273
C          3.46910       69.61540       59.56439
O          2.49166       69.58378       58.83400
O          3.58863       70.60627       60.46472
H          5.22760       70.36065       57.55311
H          6.53791       68.07919       59.08814
H          4.54796       68.01219       60.47675
H          4.16097       67.75746       58.75736
N          6.48671       69.95882       61.32183
C          7.22640       70.83283       62.23844
C          6.98155       72.33161       62.04194
O          7.63891       73.11153       62.71763
C          8.72916       70.52996       62.12862
H          5.87773       69.24983       61.75257
H          6.92896       70.57994       63.28056
H          9.12887       70.79257       61.12790
H          9.29615       71.10828       62.88913
H          8.91051       69.45038       62.31500
N          6.07881       72.81565       61.14316
C          5.92728       74.22858       60.82135
C          4.55385       74.74863       61.18235
O          3.73554       74.00807       61.71049
C          6.25689       74.44844       59.31797
C          5.70841       73.44949       58.31125
O          6.50100       72.91444       57.55261
O          4.40539       73.11575       58.18194
H          5.47732       72.16571       60.62762
H          6.63060       74.86089       61.40616
H          7.36436       74.39837       59.22553
H          5.98681       75.47197       58.99937
N          4.24649       76.05185       60.91232
C          2.93096       76.63162       61.08822
C          2.30914       76.99664       59.75390
O          1.17761       77.46140       59.76863
H          4.96950       76.66770       60.51259
H          3.00688       77.53046       61.73598
H          2.24108       75.91143       61.57921
N          2.94174       76.77466       58.55478
C          2.26331       76.95652       57.27183
C          1.09012       75.98860       57.18891
O          0.93155       75.16579       58.07816
C          3.24366       76.75007       56.09147
C          4.31581       77.81757       56.07413
N          5.62722       77.49951       56.18525
O          3.99114       78.98918       55.94716
H          3.90513       76.41680       58.53779
H          1.86286       77.99314       57.22101
H          2.69885       76.81723       55.12592
H          3.69738       75.73591       56.15701
H          5.93116       76.52118       56.29080
H          6.34552       78.23988       56.16500
N          0.17348       76.05910       56.19051
C         -1.02065       75.23192       56.25660
C         -1.96558       75.52301       55.12508
O         -3.02706       76.06953       55.38652
H          0.28943       76.75182       55.43475
H         -1.53811       75.46552       57.21428
H         -0.76365       74.15017       56.27480
N         -1.70549       75.17400       53.83626
C         -0.52241       74.44568       53.38714
C          0.22278       75.25500       52.34447
O         -0.20219       76.35632       52.01666
C         -0.95022       73.05449       52.84584
C         -1.55534       72.17520       53.95419
O         -1.82835       73.17706       51.75177
H         -2.42028       75.40839       53.12916
H          0.19420       74.27055       54.21473
H         -0.05584       72.50247       52.49172
H         -2.73860       73.36677       52.09980
H         -0.81689       72.03329       54.77258
H         -2.47169       72.63646       54.37933
H         -1.81801       71.17731       53.54424
N          1.35120       74.75603       51.76558
C          2.07459       75.45906       50.71969
C          1.61746       74.89750       49.37691
O          1.78201       73.69968       49.18476
C          3.61536       75.32002       50.91085
C          4.03584       75.93464       52.27320
C          4.36174       75.99825       49.74018
C          5.53116       75.82108       52.57532
H          1.66797       73.80708       52.01457
H          1.88750       76.53425       50.82104
H          3.88347       74.23955       50.90423
H          3.49445       75.40743       53.08767
H          3.75182       77.00961       52.30772
H          4.13431       77.08458       49.70455
H          5.45725       75.85615       49.82090
H          4.07269       75.54220       48.77066
H          6.13666       76.40624       51.85352
H          5.73297       76.23735       53.58377
H          5.85054       74.75814       52.55606
N          1.07695       75.64605       48.36458
C          0.84040       77.09206       48.38128
C          1.88431       77.79001       47.53380
O          2.69170       77.12155       46.90560
C         -0.60646       77.44039       47.96014
C         -0.93978       77.11283       46.52602
O         -1.24332       78.00825       45.75377
O         -0.94993       75.83877       46.09184
H          0.88885       75.15010       47.48201
H          0.94645       77.51102       49.38655
H         -0.75678       78.53265       48.10899
H         -1.32380       76.91782       48.62913
N          1.96323       79.15335       47.52843
C          2.97522       79.88292       46.76807
C          2.90748       81.36216       47.13609
O          1.84529       81.93875       46.95059
C          2.75565       79.68220       45.24300
C          3.91198       80.18713       44.40312
C          4.20492       81.55919       44.29685
C          4.71407       79.26625       43.70088
C          5.28079       81.99523       43.51781
C          5.78798       79.70709       42.92362
C          6.07254       81.07052       42.83342
H          1.30721       79.67881       48.12503
H          3.96324       79.45618       47.02256
H          1.80121       80.14383       44.91003
H          2.65527       78.59790       45.04308
H          3.60386       82.29821       44.80480
H          4.51491       78.20294       43.75768
H          5.49919       83.05236       43.44297
H          6.39980       78.98982       42.39161
H          6.90454       81.41012       42.23055
N          3.97814       82.07611       47.61920
C          5.33608       81.58577       47.80757
C          5.48087       80.83491       49.14014
O          4.79058       79.83868       49.30074
C          6.16343       82.87183       47.66018
C          5.27851       83.88528       48.35717
C          3.90331       83.51218       47.81997
H          5.65421       80.91178       46.98290
H          7.22123       82.81761       47.98847
H          6.17715       83.15222       46.58083
H          5.29913       83.65573       49.43763
H          5.55064       84.95229       48.21487
H          3.10590       83.81476       48.53292
H          3.72791       83.98863       46.83003
N          6.37229       81.20337       50.12034
C          6.59959       80.41541       51.33341
C          8.08245       80.02768       51.46986
O          8.68686       80.35820       52.47927
C          6.04428       81.15116       52.59370
C          6.67600       82.50647       52.99945
C          6.36034       83.62907       52.06047
O          7.25949       84.24000       51.50420
O          5.08084       84.00295       51.87112
H          6.94429       82.04773       50.00707
H          6.03027       79.46155       51.28512
H          6.18697       80.46050       53.45439
H          4.94778       81.29352       52.47590
H          7.77187       82.41968       53.12895
H          6.26094       82.79711       53.98834
N          8.77698       79.31305       50.53515
C          8.25322       78.77706       49.29851
H          7.17665       78.94183       49.17521
H          8.79441       79.23514       48.44369
H          8.41787       77.68016       49.27983
H          9.77494       79.12347       50.71931
Ca         2.53760       73.44056       59.39809
O          1.85771       72.16439       56.43715
H          2.48905       72.82432       56.05439
H          2.01471       71.33809       55.91454
O         -0.49259       73.92086       60.24635
H         -0.59505       74.64836       60.90973
H         -1.34392       73.92084       59.74094
O         -0.48822       71.07502       58.66580
H         -1.38977       71.48391       58.68671
H         -0.62000       70.16625       59.03638
O          0.78808       71.42912       61.72917
H          1.42667       71.69279       62.43848
H         -0.09191       71.74130       62.05880

Ca 1.0



