%chk=apoCaM-CA-Ng.loop1.water4.frame9.chk
%nprocshared=20
%mem=10GB
%nosave
#b3lyp/svp scf=(tight,noincore,xqc) Test 
#IOP(5/87=12) Density=Current Pop=(MK,readradii) iop(6/33=2) iop(6/42=6)

apoCaM-CA-Ng.loop1.water4.frame9 

   0  1 
C         54.94939       46.07845       66.32203
C         54.90679       47.46647       65.75448
O         55.92321       48.14571       65.75319
H         55.96622       45.83427       66.69603
H         54.22989       45.99984       67.16439
H         54.66988       45.34474       65.53687
N         53.73812       47.95224       65.25489
C         53.58701       49.29179       64.69214
C         52.59334       50.14244       65.48723
O         52.36318       51.27502       65.09446
C         53.16851       49.19228       63.20185
C         51.81409       48.56559       62.96481
O         50.92620       49.21632       62.43706
O         51.58461       47.27705       63.28073
H         52.91429       47.33388       65.28653
H         54.55995       49.82868       64.71411
H         53.92937       48.60588       62.64214
H         53.16184       50.21880       62.77326
N         51.94040       49.65428       66.58259
C         50.84745       50.34603       67.26552
C         51.29640       51.48889       68.17012
O         52.18315       51.24141       68.97590
C         50.10074       49.35340       68.19696
C         49.47742       48.13265       67.49996
C         48.43597       48.51773       66.43874
C         47.69018       47.30423       65.86612
N         48.58433       46.37004       65.18056
H         52.15115       48.69655       66.88857
H         50.14278       50.68800       66.50277
H         49.28533       49.89231       68.72284
H         50.80356       48.97874       68.97499
H         48.97881       47.52655       68.28750
H         50.27325       47.51045       67.04557
H         48.92131       49.06356       65.60255
H         47.67994       49.18337       66.90506
H         46.93561       47.68019       65.14032
H         47.14885       46.77582       66.68175
H         49.12491       46.86772       64.43703
H         49.23795       45.91787       65.85849
H         48.01017       45.61826       64.73630
N         50.66449       52.70861       68.26255
C         49.61518       53.27588       67.40361
C         48.43201       52.33850       67.17400
O         48.18710       51.96398       66.03523
C         50.26955       53.82908       66.12813
C         51.23449       54.95392       66.45246
O         51.91755       55.55460       65.47361
O         51.36853       55.37353       67.59208
H         50.97686       53.32224       69.03190
H         49.19327       54.18317       67.88800
H         49.48818       54.25009       65.45994
H         50.78846       53.01867       65.58958
N         47.63600       51.89304       68.18899
C         47.71765       52.36524       69.55984
C         46.35612       52.81472       70.06594
O         45.34726       52.45061       69.47826
H         46.91201       51.19238       67.96734
H         48.44331       53.18640       69.65013
H         48.07227       51.55010       70.22453
N         46.22167       53.56918       71.19364
C         47.35868       54.17663       71.87237
C         47.93245       55.33410       71.04604
O         49.01233       55.79744       71.38555
C         46.96117       54.66820       73.27874
C         46.48686       53.52787       74.14096
O         47.23420       52.59588       74.39475
O         45.23679       53.53165       74.64161
H         45.26990       53.75621       71.54803
H         48.14523       53.40084       72.00812
H         46.15723       55.43200       73.19415
H         47.83662       55.13537       73.77941
N         47.26047       55.87428       69.97715
C         47.77868       56.97747       69.17280
C         47.63376       56.74145       67.67655
O         47.08790       55.72728       67.26409
H         46.30990       55.54426       69.75555
H         48.83943       57.19367       69.41858
H         47.18012       57.88470       69.40559
N         48.06887       57.70088       66.80524
C         47.83867       57.68383       65.35876
C         49.15115       57.66284       64.57877
O         50.01701       58.48899       64.82936
C         46.99062       58.92185       64.97179
C         46.64245       58.94104       63.47946
O         47.66670       60.11280       65.29253
H         48.54202       58.52682       67.20147
H         47.24109       56.78968       65.07373
H         46.01973       58.86897       65.52177
H         47.34007       60.40844       66.18238
H         46.09180       58.01854       63.19812
H         46.00157       59.81945       63.25413
H         47.56021       59.01595       62.85899
N         49.33176       56.75654       63.57164
C         50.55129       56.65773       62.76490
C         50.88737       57.92612       62.00305
O         49.99246       58.59377       61.50323
C         50.52542       55.45857       61.76015
C         49.43759       55.62271       60.66088
C         50.39586       54.11958       62.50895
C         49.50041       54.55088       59.57261
H         48.56397       56.09716       63.38257
H         51.39699       56.47140       63.44212
H         51.51679       55.44534       61.25175
H         49.58851       56.58733       60.13546
H         48.42176       55.62833       61.10873
H         50.51602       53.26240       61.81737
H         51.20048       54.03050       63.26756
H         49.41153       54.02598       63.01049
H         49.27401       53.54544       59.97823
H         48.74541       54.77849       58.79056
H         50.50500       54.54373       59.09944
N         52.20024       58.22525       61.77166
C         52.65140       59.27880       60.87033
C         53.48524       58.70657       59.71168
O         53.73030       59.44864       58.77337
C         53.43257       60.34002       61.68564
C         53.80462       61.58853       60.88086
O         54.60535       59.78127       62.22313
H         52.91560       57.65073       62.23794
H         51.76305       59.77260       60.41860
H         52.76611       60.70108       62.50374
H         54.37597       59.41596       63.11702
H         52.89271       62.05630       60.45287
H         54.29726       62.32592       61.54954
H         54.51700       61.35402       60.06497
N         53.94899       57.41275       59.69771
C         54.76376       56.80768       58.63905
C         56.11442       57.50785       58.51123
O         56.15907       58.69445       58.22220
C         54.00593       56.72178       57.29632
C         52.68243       55.96029       57.47344
O         54.81240       56.03978       56.36942
H         53.73509       56.78710       60.48386
H         54.96278       55.75367       58.94200
H         53.79524       57.74685       56.91982
H         54.39355       56.15716       55.47721
H         52.87228       54.93415       57.85696
H         52.01541       56.49066       58.18571
H         52.15297       55.88174       56.50119
N         57.26827       56.81582       58.74231
C         58.59173       57.43638       58.78658
C         59.20080       57.32356       60.18512
O         60.32075       57.77503       60.38109
C         59.50931       56.83889       57.69979
C         59.88442       55.36030       57.91940
C         60.85258       54.83512       56.84513
C         60.21009       54.72727       55.45174
N         61.16858       54.21131       54.47500
H         57.20396       55.80731       58.94785
H         58.51451       58.52282       58.56144
H         60.45101       57.43144       57.67749
H         59.00099       56.97431       56.72314
H         58.98131       54.71584       57.94765
H         60.40241       55.27549       58.89920
H         61.18456       53.81862       57.14919
H         61.74996       55.49129       56.80380
H         59.85392       55.71889       55.10367
H         59.33643       54.04013       55.50728
H         61.52027       53.27207       54.77132
H         60.69519       54.11847       53.54725
H         61.97145       54.87504       54.37894
N         58.49818       56.77107       61.21724
C         58.99630       56.66273       62.58148
C         60.08704       55.61643       62.65799
O         59.84000       54.47426       62.29185
C         57.85352       56.24340       63.52942
C         56.71140       57.27102       63.56042
C         55.60045       56.75841       64.41937
O         55.80590       56.52840       65.73011
O         54.51044       56.52232       63.92523
H         57.54265       56.43648       61.04530
H         59.36454       57.65466       62.92747
H         58.25526       56.12700       64.56082
H         57.44716       55.26089       63.19757
H         56.30846       57.44152       62.53999
H         57.07274       58.24649       63.95147
N         61.31178       55.92145       63.16267
C         62.34525       54.91883       63.30635
H         63.25379       55.37048       63.75668
H         61.98883       54.10429       63.97441
H         62.60553       54.49324       62.31436
H         61.51064       56.88254       63.47831
Ca        52.93682       57.49924       65.99464
O         54.25894       56.43320       68.50168
H         54.28317       55.46425       68.70291
H         55.11109       56.78472       68.86262
O         54.77056       59.52042       67.40351
H         55.16562       59.32932       68.29075
H         54.40902       60.43829       67.48605
O         51.20314       58.88334       67.96128
H         51.05861       58.95619       68.93762
H         50.73337       59.66667       67.57914
O         52.49737       60.38761       65.28907
H         53.19259       61.08525       65.18987
H         51.71080       60.74771       64.80811

Ca 1.0



