%chk=apoCaM-CA-Ng.loop2.water3.frame316.chk
%nprocshared=20
%mem=10GB
%nosave
#b3lyp/svp scf=(tight,noincore,xqc) Test 
#IOP(5/87=12) Density=Current Pop=(MK,readradii) iop(6/33=2) iop(6/42=6)

apoCaM-CA-Ng.loop2.water3.frame316 

   -2  1 
C         44.99762      112.18364       28.98511
C         44.74652      113.65924       29.09297
O         43.95230      114.06877       29.92532
H         46.06922      111.97081       29.18210
H         44.38150      111.62248       29.72066
H         44.73641      111.83419       27.96426
N         45.41157      114.52700       28.28042
C         45.21028      115.97327       28.32210
C         43.79437      116.30833       27.87715
O         43.42325      115.95519       26.76566
C         46.24701      116.67166       27.41641
C         46.21496      118.17744       27.49522
O         47.00359      118.82703       26.82832
O         45.34820      118.82206       28.30130
H         46.10168      114.13582       27.61976
H         45.39417      116.32121       29.36367
H         46.09220      116.35638       26.36138
H         47.26306      116.34631       27.73077
N         42.94101      116.97278       28.70957
C         41.54215      117.23538       28.37442
C         40.82674      115.92353       28.13321
O         40.14232      115.79823       27.12902
C         40.85265      118.01750       29.49385
H         43.29091      117.26933       29.63378
H         41.48493      117.86597       27.45795
H         41.36832      118.99131       29.63872
H         39.79721      118.22545       29.21271
H         40.86946      117.45132       30.44821
N         41.05486      114.86683       28.96951
C         40.62775      113.49213       28.72549
C         39.16565      113.24419       29.06243
O         38.70800      112.12344       28.88879
C         41.04983      113.04429       27.29894
C         40.98879      111.56141       27.11734
O         40.34419      111.05655       26.21267
O         41.68220      110.79581       27.96925
H         41.67422      115.01984       29.77816
H         41.19451      112.85745       29.44485
H         42.11625      113.32673       27.15564
H         40.44561      113.53746       26.51225
N         38.39068      114.20990       29.63216
C         37.02257      113.98355       30.05894
C         36.92743      112.90901       31.12122
O         36.15208      111.98147       30.94050
H         38.77864      115.14746       29.80648
H         36.39165      113.71993       29.18116
H         36.62602      114.92634       30.49306
N         37.66553      112.98777       32.26955
C         37.54004      112.03450       33.37396
C         38.45760      112.43107       34.52277
O         39.66872      112.42372       34.34184
C         37.90657      110.58552       32.96052
C         37.56960      109.62073       34.07675
N         38.53677      108.94524       34.73528
O         36.40135      109.45915       34.39579
H         38.30513      113.79074       32.37673
H         36.47883      112.05737       33.70899
H         38.98847      110.54278       32.70202
H         37.34985      110.24551       32.06659
H         39.52400      109.09323       34.50811
H         38.30073      108.29428       35.49849
N         37.95528      112.77343       35.74118
C         38.81558      113.07582       36.87547
C         39.47526      111.82879       37.43491
O         39.19667      110.73171       36.97246
H         36.93381      112.83264       35.87068
H         38.19757      113.50044       37.69616
H         39.56878      113.83879       36.58290
N         40.32545      111.93022       38.49637
C         40.85055      110.75953       39.20601
C         41.72431      109.83533       38.35347
O         41.95837      108.71817       38.79547
C         41.58139      111.15957       40.51955
C         42.84695      112.00651       40.29792
O         40.69547      111.80803       41.40099
H         40.52281      112.87504       38.85555
H         39.96370      110.15724       39.50752
H         41.90778      110.22660       41.02925
H         40.58705      112.74955       41.10760
H         42.61569      112.96930       39.79756
H         43.32773      112.22617       41.27432
H         43.57414      111.45545       39.67927
N         42.23847      110.20709       37.14514
C         43.00597      109.31180       36.27523
C         42.28563      109.18251       34.94829
O         41.82656      110.17830       34.40315
C         44.47326      109.80040       36.10113
C         45.26201      109.76872       37.43990
C         45.23105      108.98288       35.03270
C         45.43105      108.38095       38.08336
H         42.07885      111.16957       36.81118
H         43.06205      108.28904       36.70041
H         44.45167      110.85391       35.74445
H         44.76194      110.42780       38.16862
H         46.27727      110.18506       37.26380
H         44.75658      109.10008       34.03668
H         46.27635      109.34610       34.93970
H         45.24403      107.90103       35.27949
H         45.97735      107.68556       37.41437
H         46.02065      108.47849       39.01861
H         44.45834      107.92866       38.35835
N         42.20138      107.96086       34.35096
C         41.47513      107.68783       33.11969
C         40.54061      106.47435       33.31164
O         39.99208      105.97285       32.34295
C         42.50954      107.41901       32.01010
C         41.92954      107.49753       30.62436
O         40.77530      107.85717       30.44384
O         42.71027      107.27838       29.55326
H         42.71335      107.17283       34.78084
H         40.89523      108.58352       32.80876
H         43.00361      106.45071       32.18681
H         43.29106      108.20914       32.04501
N         40.34254      105.93885       34.55459
C         39.62572      104.69669       34.83362
C         40.39563      103.50459       34.26573
O         41.54950      103.34366       34.63714
C         39.53777      104.53382       36.37810
C         39.02915      103.18934       36.84443
C         37.72923      102.75327       36.54591
C         39.87680      102.35528       37.59847
C         37.28999      101.49983       36.98952
C         39.43466      101.10753       38.03948
C         38.14214      100.67848       37.73473
H         40.73648      106.42976       35.36702
H         38.59256      104.75153       34.43362
H         38.90204      105.34193       36.80112
H         40.56111      104.67468       36.79357
H         37.05907      103.38029       35.97234
H         40.88455      102.66791       37.84457
H         36.28844      101.16363       36.75704
H         40.09664      100.47484       38.61727
H         37.80254       99.71007       38.07813
N         39.82204      102.57347       33.43590
C         40.47672      101.31747       33.09675
C         41.54749      101.45111       32.03198
O         42.26959      100.48388       31.82694
C         39.31543      100.42814       32.64520
C         38.40678      101.43328       31.96471
C         38.46358      102.61228       32.93678
H         40.93959      100.86346       34.00172
H         39.60138       99.53768       32.04481
H         38.77337      100.07637       33.55334
H         38.89988      101.73434       31.01232
H         37.38054      101.07653       31.73498
H         38.22336      103.55219       32.39476
H         37.76770      102.46519       33.78858
N         41.71528      102.58762       31.30184
C         42.80720      102.73607       30.34807
C         44.11499      102.80575       31.10990
O         45.00934      102.01519       30.84556
C         42.63155      104.00335       29.49132
C         41.41616      103.89750       28.55428
C         41.27456      105.12389       27.69869
O         42.16762      105.44698       26.93108
O         40.15101      105.86368       27.76043
H         41.05784      103.37158       31.43047
H         42.82713      101.87325       29.64342
H         43.53988      104.13804       28.86221
H         42.52723      104.88040       30.15651
H         40.48780      103.75926       29.14775
H         41.53957      103.01784       27.88543
N         44.28136      103.73355       32.09119
C         45.50583      103.86474       32.84682
H         46.34552      104.11622       32.16532
H         45.39926      104.68097       33.59408
H         45.72552      102.91779       33.38254
H         43.50163      104.36139       32.32102
Ca        42.07973      108.60309       27.88220
O         38.70541      108.98146       28.01614
H         37.87709      109.10168       27.48707
H         38.48492      109.34713       28.90951
O         40.35865      108.22918       24.91405
H         40.81504      108.44376       24.06185
H         39.39562      108.34831       24.71647
O         44.45173      108.94818       26.06308
H         43.77158      109.64676       25.88885
H         44.82373      109.18045       26.95107

Ca 1.0



