%chk=apoCaM-CA-Ng.loop2.water4.frame62.chk
%nprocshared=20
%mem=10GB
%nosave
#b3lyp/svp scf=(tight,noincore,xqc) Test 
#IOP(5/87=12) Density=Current Pop=(MK,readradii) iop(6/33=2) iop(6/42=6)

apoCaM-CA-Ng.loop2.water4.frame62 

   -2  1 
C         52.68347       43.84825       96.54306
C         53.91252       44.39172       95.87494
O         54.17628       44.02283       94.74103
H         51.78914       44.09544       95.93434
H         52.76761       42.74460       96.63487
H         52.55028       44.27619       97.55915
N         54.73550       45.25367       96.53383
C         55.95941       45.79608       95.95671
C         57.18843       45.18378       96.62789
O         58.29644       45.60441       96.32683
C         55.91115       47.33506       96.06199
C         57.03140       47.99866       95.30790
O         57.90350       48.79509       95.95382
O         57.14675       47.82929       94.10376
H         54.50912       45.51126       97.50765
H         56.03006       45.53462       94.87783
H         55.93285       47.63867       97.13106
H         54.95788       47.70127       95.62325
N         57.07097       44.11604       97.47702
C         58.18862       43.39450       98.07066
C         59.13751       42.89028       96.99900
O         60.33667       43.11910       97.08925
C         58.88441       44.24894       99.13668
H         56.14043       43.72682       97.67877
H         57.77515       42.49947       98.58707
H         59.69049       43.66255       99.62737
H         59.32598       45.16502       98.69223
H         58.14807       44.54607       99.91300
N         58.64154       42.22070       95.91847
C         59.45520       41.72067       94.82049
C         60.30303       42.84639       94.24580
O         61.51144       42.69626       94.11918
C         60.30227       40.51230       95.27917
C         59.46445       39.35573       95.76808
O         58.70799       38.63217       94.92311
O         59.52750       39.01284       96.93592
H         57.62338       42.09830       95.83797
H         58.77523       41.37063       94.01051
H         60.97398       40.84215       96.09942
H         60.94033       40.14480       94.44562
N         59.71025       44.00706       93.84771
C         60.43609       45.06879       93.17299
C         60.21151       44.99506       91.67875
O         60.80659       45.78818       90.96297
H         58.68549       44.10039       93.92912
H         61.52947       44.97581       93.34770
H         60.12153       46.05572       93.57842
N         59.39413       44.04458       91.12903
C         59.18773       43.87379       89.69570
C         58.56020       45.12857       89.08548
O         58.26742       46.06942       89.81168
C         58.32946       42.59534       89.48333
C         58.25288       42.11946       88.05739
N         57.06119       41.99045       87.42994
O         59.28244       41.83174       87.46490
H         58.91135       43.37930       91.74837
H         60.18469       43.70338       89.23188
H         57.31609       42.76266       89.90738
H         58.79620       41.76081       90.05328
H         56.18082       42.21743       87.91147
H         57.01806       41.65778       86.45568
N         58.34046       45.21895       87.74504
C         57.83902       46.41351       87.09090
C         56.46011       46.17492       86.54236
O         56.26655       45.20868       85.81761
H         58.56238       44.42197       87.13643
H         58.52976       46.66437       86.25890
H         57.82114       47.28616       87.77760
N         55.44286       47.03118       86.85121
C         54.08942       46.85502       86.33859
C         53.23627       46.01831       87.27991
O         52.11749       45.70076       86.89647
C         53.42981       48.22401       86.00060
C         53.07304       49.06565       87.23224
O         54.28116       48.97571       85.17570
H         55.64340       47.83950       87.45738
H         54.15228       46.30223       85.37468
H         52.46284       48.04649       85.47253
H         54.20679       48.59569       84.26232
H         52.30764       48.54152       87.83421
H         53.95943       49.28411       87.86185
H         52.62610       50.03127       86.91455
N         53.67156       45.63881       88.52347
C         52.84648       44.86204       89.45093
C         53.54627       43.59154       89.87736
O         54.74088       43.46175       89.64136
C         52.49515       45.70295       90.71955
C         53.73519       45.94222       91.63332
C         51.84583       47.03044       90.30597
C         53.42106       46.72089       92.90828
H         54.60464       45.93468       88.84559
H         51.89828       44.57122       88.94862
H         51.74768       45.12461       91.30630
H         54.53521       46.48061       91.08298
H         54.14344       44.96154       91.95986
H         52.60502       47.67557       89.82212
H         51.00119       46.85242       89.60784
H         51.44477       47.57380       91.18362
H         54.33846       46.77839       93.52580
H         53.10980       47.75950       92.67863
H         52.62683       46.20872       93.49117
N         52.86817       42.62889       90.56894
C         53.54032       41.50405       91.20287
C         53.33580       40.22845       90.40258
O         53.05009       39.18426       90.96957
C         53.03738       41.40992       92.66648
C         53.84750       40.49835       93.53284
O         53.54798       40.34282       94.70540
O         54.97015       39.95221       93.04223
H         51.84745       42.72192       90.68921
H         54.63653       41.69708       91.20347
H         51.97245       41.10204       92.67489
H         53.09544       42.41584       93.12896
N         53.48053       40.25397       89.04862
C         53.34727       39.08208       88.19148
C         52.00774       38.37360       88.42461
O         50.98220       39.03697       88.35165
C         53.43655       39.51798       86.71152
C         53.42744       38.32550       85.79144
C         54.54948       37.48317       85.71739
C         52.29422       38.03414       85.01538
C         54.53321       36.36062       84.88572
C         52.27877       36.90558       84.19134
C         53.39691       36.06944       84.12651
H         53.69098       41.15858       88.60160
H         54.19957       38.41051       88.41713
H         54.35795       40.11004       86.51645
H         52.56878       40.18219       86.50026
H         55.43339       37.69515       86.30693
H         51.41690       38.66716       85.06420
H         55.39960       35.71415       84.83458
H         51.39747       36.67706       83.60678
H         53.38246       35.19555       83.48891
N         51.92452       37.02839       88.68393
C         50.67933       36.30411       88.92379
C         49.90712       36.84797       90.10589
O         48.70245       37.03580       90.01990
C         51.14919       34.87934       89.26471
C         52.41086       34.76206       88.45148
C         53.05499       36.12008       88.69851
H         50.07069       36.30016       87.99161
H         51.47681       34.81698       90.32838
H         50.38432       34.09222       89.09440
H         53.05700       33.89333       88.69798
H         52.11545       34.70184       87.37840
H         53.55312       36.18405       89.69144
H         53.78175       36.28627       87.88519
N         50.58216       37.11547       91.25637
C         49.98362       37.56900       92.50464
C         49.14899       38.81476       92.27381
O         47.98462       38.81616       92.64875
C         51.09533       37.82355       93.55419
C         51.87995       36.53880       93.90612
C         53.02548       36.83329       94.83166
O         54.17055       36.58466       94.48633
O         52.79901       37.36295       96.04796
H         51.60359       36.99971       91.22310
H         49.31577       36.77443       92.90707
H         50.64316       38.22416       94.48775
H         51.79537       38.58514       93.15564
H         52.30173       36.06215       92.99805
H         51.19839       35.80303       94.38310
N         49.66195       39.89009       91.61478
C         48.89989       41.08696       91.32024
H         47.86867       41.04608       91.73030
H         49.41548       41.96926       91.75199
H         48.83070       41.21344       90.21905
H         50.62808       39.84985       91.26815
Ca        56.67054       39.31540       94.32754
O         57.39604       36.23879       93.41249
H         58.37706       36.33351       93.31649
H         57.02597       36.63365       92.58337
O         56.68779       36.25872       96.48840
H         57.64546       36.29005       96.73831
H         56.28814       35.60522       97.11585
O         55.46585       40.95324       96.74588
H         55.34381       41.42153       97.60853
H         55.33322       41.65613       96.06172
O         56.44225       38.64664       98.38837
H         55.62341       38.98509       98.83051
H         57.12496       39.34221       98.56320

Ca 1.0



