%chk=apoCaM-CA-Ng.loop2.water2.frame889.chk
%nprocshared=20
%mem=10GB
%nosave
#b3lyp/svp scf=(tight,noincore,xqc) Test 
#IOP(5/87=12) Density=Current Pop=(MK,readradii) iop(6/33=2) iop(6/42=6)

apoCaM-CA-Ng.loop2.water2.frame889 

   -2  1 
C          8.49546       -2.68343       15.06214
C          7.99337       -1.39068       14.49045
O          6.87428       -1.36226       13.99886
H          9.51909       -2.57315       15.47784
H          7.81776       -3.01544       15.87638
H          8.51731       -3.45771       14.26714
N          8.77081       -0.27186       14.52416
C          8.34689        1.01832       14.00107
C          8.31060        2.00401       15.15809
O          9.03900        2.98732       15.16244
C          9.29950        1.42177       12.85280
C          8.87772        2.66311       12.10752
O          7.75829        3.33583       12.44073
O          9.55107        3.05398       11.16761
H          9.71063       -0.33010       14.94686
H          7.32195        0.95374       13.57271
H          9.32328        0.59181       12.11245
H         10.32851        1.55859       13.25114
N          7.45796        1.77213       16.19658
C          7.35985        2.63466       17.36899
C          8.65410        2.58419       18.17253
O          9.03646        1.48708       18.55630
C          6.20670        2.16492       18.26680
H          6.84120        0.94632       16.13738
H          7.11153        3.65476       17.02051
H          5.25005        2.19803       17.70365
H          6.37634        1.12248       18.61418
H          6.11396        2.82340       19.15619
N          9.41932        3.67715       18.47318
C          9.11125        5.05820       18.09868
C         10.32845        5.97152       18.24166
O         11.33269        5.58527       18.82224
C          7.90759        5.61999       18.90220
C          8.14262        5.61572       20.39009
O          8.10816        6.76975       21.08220
O          8.32898        4.56500       20.98319
H         10.29983        3.48570       18.97505
H          8.88403        5.06396       17.01102
H          6.99064        5.03241       18.71439
H          7.69552        6.65836       18.56787
N         10.32487        7.18513       17.62510
C         11.48576        8.05708       17.55752
C         11.10185        9.47731       17.87417
O         11.06581       10.27393       16.94658
H          9.49198        7.45926       17.08027
H         11.82951        8.03406       16.49952
H         12.33751        7.71578       18.18075
N         10.76879        9.91692       19.11826
C         10.84326        9.14794       20.35831
C         12.30663        8.90757       20.73411
O         13.06356        9.86880       20.76044
C         10.15059        9.97856       21.46637
C          9.95238        9.28011       22.78452
N          9.40925        9.96498       23.81597
O         10.25580        8.10713       22.92884
H         10.44942       10.89801       19.18094
H         10.27384        8.20017       20.24767
H          9.13550       10.26673       21.11544
H         10.73498       10.90931       21.63731
H          9.13706       10.95202       23.70428
H          9.26716        9.51997       24.73059
N         12.76647        7.66636       21.07212
C         14.16000        7.38665       21.42140
C         14.36441        6.98227       22.87728
O         15.49809        6.70583       23.24216
H         12.09903        6.88417       21.09258
H         14.80213        8.27743       21.24754
H         14.53103        6.57826       20.75627
N         13.34030        6.98345       23.77634
C         13.48232        6.72777       25.20929
C         12.52971        5.63783       25.65961
O         11.36147        5.71124       25.32099
C         13.15129        8.01856       26.00273
C         14.22861        9.08541       25.82007
O         11.91393        8.55651       25.60693
H         12.40563        7.24240       23.44892
H         14.52001        6.43332       25.48257
H         13.13867        7.78768       27.09558
H         11.21105        8.10287       26.13767
H         14.31922        9.38223       24.75482
H         13.96790        9.98185       26.42251
H         15.20757        8.69996       26.17812
N         12.94863        4.63469       26.48731
C         12.04163        3.65561       27.09636
C         11.12169        4.37507       28.09952
O         11.46184        4.47199       29.27195
C         12.84398        2.53431       27.83417
C         11.89957        1.50687       28.52755
C         13.79245        1.78526       26.87307
C         12.56405        0.85843       29.74174
H         13.94884        4.60253       26.73409
H         11.44058        3.15875       26.30274
H         13.45250        3.04866       28.61162
H         11.54056        0.74741       27.79729
H         10.99778        1.99328       28.94288
H         14.37747        1.01327       27.41310
H         13.20870        1.28533       26.06904
H         14.51920        2.46883       26.39070
H         11.85908        0.14414       30.21668
H         13.49920        0.32944       29.47547
H         12.79680        1.65020       30.48995
N          9.93819        4.90962       27.70019
C          9.00599        5.58049       28.59905
C          8.29231        4.60547       29.53321
O          7.61259        5.08824       30.43160
C          7.92190        6.31376       27.77309
C          8.45672        7.46475       26.96027
O          8.86376        8.46626       27.52727
O          8.44695        7.42682       25.61025
H          9.69749        4.85679       26.71273
H          9.56581        6.32685       29.20688
H          7.13848        6.73548       28.44040
H          7.42979        5.57423       27.10414
N          8.30323        3.24901       29.34920
C          7.49518        2.35086       30.17290
C          7.50128        0.92020       29.62785
O          8.57277        0.32678       29.56617
C          7.99489        2.28585       31.64094
C          7.06216        1.40545       32.45001
C          7.45017        0.10740       32.82757
C          5.77321        1.85831       32.78333
C          6.55647       -0.72629       33.50836
C          4.88787        1.02569       33.47540
C          5.27682       -0.26779       33.83174
H          8.81668        2.85245       28.54794
H          6.46083        2.75103       30.17604
H          8.05861        3.28185       32.12580
H          9.02396        1.86224       31.63460
H          8.43073       -0.27113       32.56820
H          5.45225        2.85290       32.50002
H          6.85224       -1.73225       33.77705
H          3.89591        1.37937       33.72587
H          4.58519       -0.91606       34.35473
N          6.34634        0.25386       29.31134
C          6.28353       -1.18026       29.06558
C          6.76116       -1.60752       27.68896
O          6.70376       -2.79814       27.41563
C          4.80312       -1.50504       29.29538
C          4.12505       -0.25706       28.77633
C          5.01655        0.83536       29.35534
H          6.87367       -1.74453       29.82267
H          4.45069       -2.46795       28.86837
H          4.62094       -1.52931       30.39552
H          4.23297       -0.25472       27.66803
H          3.04971       -0.15130       29.03356
H          4.92059        1.75423       28.73818
H          4.75497        1.04598       30.41274
N          7.25829       -0.72657       26.77458
C          7.73496       -1.16173       25.46046
C          8.94809       -2.08578       25.53103
O          9.32816       -2.60728       24.49147
C          8.02981        0.05561       24.56578
C          9.21814        0.89626       25.04946
C          9.20628        2.20810       24.33706
O          8.99203        3.30232       25.07733
O          9.33327        2.28521       23.12628
H          7.25905        0.27663       27.00202
H          6.89978       -1.71775       24.97959
H          7.10911        0.68184       24.56285
H          8.22546       -0.26355       23.51835
H         10.18350        0.36428       24.90537
H          9.11730        1.11291       26.13453
N          9.60903       -2.33413       26.70139
C         10.73987       -3.23319       26.80554
H         11.62089       -2.67443       27.18381
H         10.49352       -4.04391       27.52354
H         11.00543       -3.69904       25.83384
H          9.31749       -1.87320       27.57371
Ca         8.65580        5.45517       24.55293
O          6.35152        3.90947       23.45185
H          6.02612        2.98705       23.60354
H          5.68225        4.48796       23.89653
O         11.36909        4.39598       21.92872
H         11.40998        3.41716       22.06316
H         12.01368        4.56061       21.19689

Ca 1.0



