%chk=apoCaM-CA-Ng.loop1.water5.frame506.chk
%nprocshared=20
%mem=10GB
%nosave
#b3lyp/svp scf=(tight,noincore,xqc) Test 
#IOP(5/87=12) Density=Current Pop=(MK,readradii) iop(6/33=2) iop(6/42=6)

apoCaM-CA-Ng.loop1.water5.frame506 

   0  1 
C         62.45466       70.07014       16.08463
C         62.41539       71.53410       15.75950
O         62.53386       71.88236       14.59421
H         63.31308       69.86826       16.76072
H         61.51382       69.76463       16.58547
H         62.58819       69.46464       15.16195
N         62.28906       72.45159       16.76415
C         62.34882       73.90311       16.59107
C         61.14649       74.45279       15.82471
O         60.75516       73.88527       14.81641
C         63.69671       74.30729       15.94278
C         64.05488       75.76907       16.05652
O         63.27327       76.64489       16.71443
O         65.10657       76.16051       15.57791
H         62.21225       72.09706       17.73030
H         62.34284       74.34693       17.61223
H         63.70166       74.02343       14.87016
H         64.51112       73.75253       16.45691
N         60.56316       75.62001       16.22752
C         59.46699       76.30674       15.54724
C         58.15966       75.58002       15.77549
O         57.45789       75.23453       14.83533
C         59.78058       76.61868       14.06260
C         61.09173       77.40790       13.92652
C         61.37412       77.79468       12.46899
C         62.67310       78.60639       12.30884
N         63.86604       77.83241       12.65997
H         60.94210       76.09340       17.05990
H         59.33090       77.29155       16.04971
H         58.94545       77.22502       13.64728
H         59.84748       75.68750       13.46229
H         61.91739       76.77680       14.30833
H         61.02911       78.33377       14.53914
H         60.53205       78.42297       12.10470
H         61.42882       76.88331       11.83456
H         62.62502       79.52698       12.93225
H         62.75509       78.91908       11.24472
H         63.90992       76.95651       12.09004
H         64.71576       78.40746       12.45942
H         63.87153       77.59890       13.67653
N         57.76244       75.38094       17.06331
C         56.49095       74.79389       17.47899
C         56.46502       74.83105       19.01466
O         57.39855       74.28455       19.58660
C         56.35587       73.32489       16.98665
C         54.95724       72.78891       17.14990
O         54.03561       73.53120       17.43691
O         54.68716       71.49254       16.92639
H         58.40377       75.72375       17.79701
H         55.68899       75.40510       17.02092
H         57.07754       72.68760       17.54219
H         56.58936       73.22568       15.90840
N         55.54114       75.47071       19.79264
C         54.29078       76.07778       19.37443
C         53.19317       75.50320       20.24367
O         52.53844       76.25179       20.95458
H         55.73002       75.49812       20.80822
H         54.06120       75.89977       18.30972
H         54.34611       77.17575       19.53707
N         53.00606       74.15456       20.29025
C         52.09018       73.47164       21.20253
C         52.26442       71.95551       21.13170
O         52.90388       71.44467       20.22097
C         50.60846       73.86374       20.97299
C         50.07586       73.55054       19.59754
O         50.78285       73.04750       18.73927
O         48.79295       73.83957       19.30893
H         53.62674       73.58548       19.70755
H         52.38246       73.77234       22.23319
H         50.47375       74.94942       21.14900
H         49.97700       73.33619       21.71955
N         51.75144       71.16842       22.11553
C         51.91611       69.72406       22.15284
C         53.35129       69.24825       22.32634
O         53.52507       68.04341       22.42350
H         51.21439       71.60842       22.87805
H         51.49040       69.27976       21.22720
H         51.33915       69.32968       23.01679
N         54.42673       70.09244       22.38503
C         55.79798       69.61628       22.57754
C         56.22458       68.61612       21.51247
O         55.57493       68.51387       20.48343
C         56.79831       70.80687       22.64152
C         56.85575       71.61720       21.33388
O         56.44036       71.67661       23.68360
H         54.27471       71.10529       22.33367
H         55.81723       69.07771       23.54973
H         57.82904       70.42406       22.82331
H         56.66863       71.21608       24.53234
H         55.87449       72.07347       21.08381
H         57.59144       72.44111       21.44534
H         57.17647       70.98357       20.48076
N         57.32823       67.83588       21.70586
C         57.77102       66.85376       20.71525
C         56.84390       65.63587       20.63338
O         57.00667       64.85669       19.70364
C         59.25901       66.43662       20.92116
C         59.47894       65.60381       22.21177
C         60.15803       67.69095       20.87413
C         60.90917       65.07264       22.34699
H         57.87212       67.97120       22.56951
H         57.73772       67.36054       19.72379
H         59.53964       65.79463       20.05572
H         58.81034       64.71677       22.18531
H         59.22918       66.19746       23.11550
H         59.95828       68.36506       21.73335
H         61.23230       67.42350       20.88567
H         59.97548       68.25696       19.93587
H         61.64034       65.89810       22.46083
H         60.98380       64.43334       23.25140
H         61.17968       64.46128       21.45940
N         55.85494       65.40549       21.55141
C         54.88454       64.31577       21.44450
C         54.94715       63.41287       22.66062
O         54.77914       63.90371       23.76964
C         53.45833       64.90360       21.34084
C         53.31002       65.80131       20.11334
O         52.52085       63.86027       21.26216
H         55.74810       66.04737       22.35059
H         55.06507       63.70645       20.53126
H         53.26914       65.50699       22.25976
H         51.65095       64.23344       21.56356
H         54.03793       66.62936       20.15795
H         53.48530       65.22309       19.18242
H         52.29124       66.24158       20.08655
N         55.13730       62.06734       22.51979
C         55.07055       61.13325       23.64098
C         55.54930       59.74778       23.20356
O         56.52191       59.26507       23.76623
C         53.62734       61.10552       24.24384
C         53.52289       60.22204       25.49025
O         52.69804       60.67800       23.28062
H         55.31798       61.69379       21.57492
H         55.76996       61.48931       24.43186
H         53.36262       62.13628       24.56695
H         51.81216       61.04626       23.53739
H         53.75580       59.16370       25.25254
H         54.21827       60.58724       26.27534
H         52.48826       60.27258       25.89512
N         54.91196       59.05127       22.21581
C         55.29344       57.70986       21.78431
C         55.49748       57.67160       20.27786
O         54.62449       58.12042       19.54674
C         54.17057       56.72050       22.16255
C         54.52219       55.26805       21.77544
C         53.36560       54.31040       22.08874
C         53.63590       52.86886       21.61909
N         54.71321       52.22258       22.37054
H         54.08941       59.47211       21.76191
H         56.21346       57.36259       22.30533
H         53.22821       57.02396       21.65550
H         54.00490       56.76515       23.26174
H         55.44268       54.96316       22.31714
H         54.71557       55.20897       20.68338
H         52.46815       54.67243       21.54113
H         53.13782       54.31836       23.17653
H         53.87633       52.86381       20.53205
H         52.70379       52.27908       21.76227
H         54.47577       52.20263       23.38892
H         54.81556       51.23819       22.03241
H         55.62256       52.71398       22.22341
N         56.56352       57.00837       19.74554
C         56.67298       56.73267       18.31584
C         56.96298       57.99963       17.51550
O         56.11649       58.35089       16.70556
C         57.66054       55.57451       18.04175
C         57.14056       54.24755       18.62861
C         58.11611       53.12939       18.40373
O         58.43236       52.80283       17.27087
O         58.63850       52.47180       19.45683
H         57.24268       56.57658       20.39070
H         55.68816       56.34495       17.96244
H         58.65013       55.78133       18.48379
H         57.77352       55.44526       16.94243
H         56.17150       53.98016       18.15282
H         56.97257       54.35160       19.72124
N         58.08053       58.77266       17.64959
C         59.18156       58.50611       18.54713
H         59.92347       59.32959       18.47629
H         58.82607       58.44467       19.59519
H         59.71474       57.58632       18.24752
H         58.14983       59.62410       17.06997
Ca        52.54040       70.90405       17.32763
O         50.29609       69.11450       18.60243
H         49.83728       68.57947       19.29752
H         50.47762       68.47045       17.87250
O         53.72436       68.43777       18.24273
H         53.39322       68.86470       19.07299
H         53.00853       67.80216       17.99218
O         49.69767       71.12346       16.26046
H         49.48545       72.03752       16.57551
H         49.20144       71.03314       15.40895
O         52.61289       69.41201       14.95375
H         52.38897       68.94482       14.11155
H         53.57633       69.23216       15.09661
O         52.31011       73.04141       15.05679
H         53.12936       73.04347       14.50059
H         51.68137       72.45014       14.57228

Ca 1.0



