%chk=apoCaM-CA-Ng.loop1.water3.frame1468.chk
%nprocshared=20
%mem=10GB
%nosave
#b3lyp/svp scf=(tight,noincore,xqc) Test 
#IOP(5/87=12) Density=Current Pop=(MK,readradii) iop(6/33=2) iop(6/42=6)

apoCaM-CA-Ng.loop1.water3.frame1468 

   0  1 
C         51.17616       52.81798       72.36679
C         50.55922       54.16034       72.10680
O         51.27412       55.05463       71.67659
H         51.99775       52.92749       73.10612
H         50.43271       52.09899       72.76910
H         51.59203       52.41046       71.42159
N         49.23272       54.37756       72.34813
C         48.59070       55.67323       72.14480
C         48.04740       56.20431       73.45969
O         46.90633       56.64109       73.53140
C         47.52793       55.58387       71.02565
C         46.36626       54.65601       71.30339
O         45.49815       54.52075       70.45695
O         46.25535       53.98402       72.46650
H         48.66583       53.59605       72.70660
H         49.34666       56.41579       71.80785
H         48.03462       55.23892       70.09831
H         47.12200       56.60100       70.83441
N         48.84432       56.18997       74.56025
C         48.44116       56.73127       75.85126
C         48.23250       58.23583       75.77234
O         47.14863       58.66790       76.13843
C         49.43956       56.33628       76.96419
C         49.37785       54.81513       77.19267
C         50.31440       54.33940       78.30425
C         50.11878       52.83247       78.53537
N         51.01358       52.33256       79.57616
H         49.77900       55.76202       74.47342
H         47.46890       56.27535       76.14982
H         49.13912       56.83490       77.91241
H         50.47427       56.65469       76.72249
H         49.63793       54.27493       76.25717
H         48.33423       54.54921       77.47353
H         50.08713       54.88439       79.24645
H         51.36719       54.54634       78.01241
H         50.31328       52.27858       77.58970
H         49.06425       52.64219       78.83916
H         52.00891       52.46226       79.28326
H         50.83739       52.83581       80.47570
H         50.83184       51.31231       79.71737
N         49.15074       59.12721       75.29559
C         50.46028       58.81200       74.73303
C         50.46922       59.14483       73.24463
O         49.44508       59.53856       72.70399
C         51.56391       59.50575       75.55075
C         51.39624       60.98322       75.58598
O         51.44796       61.61832       74.55014
O         51.18573       61.61167       76.75865
H         48.87134       60.12177       75.28260
H         50.69220       57.74152       74.79487
H         52.56831       59.26853       75.14147
H         51.52753       59.11757       76.59132
N         51.58504       58.92365       72.50237
C         51.61493       59.00572       71.05482
C         51.34073       60.39362       70.44069
O         52.25378       61.33800       70.93776
H         52.43460       58.57856       72.97024
H         50.87056       58.28514       70.64840
H         52.61750       58.66936       70.71069
N         51.48072       60.18371       68.98328
C         52.03563       61.20848       68.07277
C         52.66351       60.48267       66.87652
O         52.41366       59.29302       66.73161
C         50.90216       62.12346       67.55969
C         50.22424       62.85919       68.67003
O         49.03526       62.68841       68.88635
O         50.92319       63.72795       69.41942
H         50.64517       59.69135       68.58720
H         52.83202       61.77413       68.59456
H         50.15354       61.49917       67.01998
H         51.28106       62.87515       66.84506
N         53.48235       61.06755       65.95114
C         54.02343       62.41449       65.97877
C         54.98284       62.59419       67.12818
O         55.86222       61.76266       67.30650
H         53.79564       60.47966       65.16156
H         53.23035       63.18569       65.95785
H         54.62126       62.55655       65.05144
N         54.91730       63.70531       67.90860
C         55.85273       63.96545       68.99769
C         55.47879       63.13984       70.21541
O         54.29927       63.03086       70.50328
C         55.89370       65.47797       69.31162
C         56.95900       65.81709       70.36126
O         54.63344       65.92842       69.73506
H         54.21555       64.42411       67.67228
H         56.88522       63.71691       68.66074
H         56.17833       65.99062       68.36107
H         54.59107       66.89826       69.52619
H         57.95810       65.46627       70.02366
H         57.00618       66.91664       70.50025
H         56.72653       65.34289       71.33694
N         56.44616       62.58131       71.00177
C         56.21893       61.76565       72.19840
C         55.39783       62.50884       73.24731
O         54.20156       62.67525       73.06263
C         55.57883       60.38827       71.84286
C         56.46897       59.63080       70.82446
C         55.35590       59.54344       73.11771
C         55.82188       58.35873       70.27302
H         57.43022       62.75360       70.74434
H         57.22141       61.55353       72.63543
H         54.59319       60.57104       71.37191
H         57.44695       59.37989       71.29082
H         56.66288       60.28336       69.94700
H         54.85934       58.58181       72.88726
H         56.32239       59.33673       73.62443
H         54.68826       60.06778       73.83266
H         54.86549       58.60876       69.76715
H         56.50128       57.89587       69.52717
H         55.63622       57.60883       71.06681
N         55.97544       62.94043       74.40359
C         55.22250       63.57124       75.48495
C         55.58769       65.03676       75.67399
O         55.08266       65.62043       76.61897
C         55.35980       62.74776       76.79325
C         56.78436       62.67572       77.34865
O         54.89992       61.43924       76.57598
H         56.99110       62.81473       74.52508
H         54.13431       63.57807       75.25558
H         54.73920       63.22972       77.58720
H         53.91183       61.46606       76.65547
H         57.46585       62.15675       76.64478
H         57.17569       63.69194       77.56191
H         56.77543       62.09990       78.29945
N         56.40152       65.71200       74.80412
C         56.69929       67.14452       74.91278
C         55.40961       67.94992       74.72263
O         55.09109       68.27989       73.58954
C         57.76560       67.53573       73.83885
C         58.22464       68.99637       73.94038
O         58.88561       66.68796       73.90785
H         56.81493       65.19409       74.01541
H         57.13961       67.34601       75.91435
H         57.31652       67.39263       72.83328
H         59.26771       66.76446       74.81984
H         58.71920       69.17750       74.91772
H         58.95317       69.21264       73.12902
H         57.37057       69.69604       73.83238
N         54.58271       68.22680       75.78022
C         53.24973       68.82944       75.67670
C         52.31208       67.97475       74.83406
O         52.60565       67.71597       73.67782
C         53.27042       70.26599       75.12797
C         54.01487       71.24306       76.04672
C         53.87648       72.67308       75.50027
C         54.57859       73.73801       76.35699
N         53.98398       73.86817       77.68923
H         54.89270       67.96361       76.72648
H         52.81900       68.89282       76.70223
H         52.21185       70.60811       75.06847
H         53.69630       70.29788       74.10394
H         55.08823       70.96106       76.11193
H         53.56434       71.18542       77.06027
H         52.79941       72.93951       75.41452
H         54.32139       72.70212       74.48189
H         54.47856       74.71301       75.82989
H         55.66198       73.50405       76.44459
H         52.96014       74.06852       77.61084
H         54.13704       73.00227       78.25230
H         54.44246       74.66519       78.18697
N         51.11419       67.55764       75.32957
C         50.18669       66.76080       74.53106
C         50.69993       65.29409       74.39999
O         49.96292       64.61271       73.40982
C         48.73289       66.88824       75.04998
C         48.26931       68.35913       75.01651
C         46.86430       68.50913       75.51921
O         46.55941       68.16435       76.78494
O         45.99802       68.97095       74.79387
H         50.83619       67.86503       76.27407
H         50.16067       67.19242       73.50564
H         48.63668       66.49759       76.08080
H         48.05985       66.29209       74.39588
H         48.33558       68.73917       73.97277
H         48.92210       68.99082       75.65487
N         50.68161       64.48543       75.63394
C         51.09813       65.12185       76.88697
H         50.32550       65.81909       77.25865
H         51.19055       64.34230       77.67432
H         52.08120       65.62566       76.78450
H         51.40654       63.76261       75.45923
Ca        51.18468       62.99863       72.21462
O         51.14799       66.06979       71.00452
H         50.36305       66.21360       70.41876
H         51.44402       66.98029       71.25309
O         48.20159       62.25863       72.02831
H         48.88985       61.75165       71.53007
H         47.89142       62.94302       71.38446
O         53.57270       65.34586       72.56041
H         53.61316       65.31360       73.54819
H         54.50652       65.51861       72.28714

Ca 1.0



