%chk=apoCaM-CA-Ng.loop4.water3.frame972.chk
%nprocshared=20
%mem=10GB
%nosave
#b3lyp/svp scf=(tight,noincore,xqc) Test 
#IOP(5/87=12) Density=Current Pop=(MK,readradii) iop(6/33=2) iop(6/42=6)

apoCaM-CA-Ng.loop4.water3.frame972 

   -3  1 
C         84.46875       13.42485       55.00879
C         85.06893       13.39260       56.38020
O         84.86883       14.32462       57.14554
H         83.86751       14.34659       54.86132
H         85.28485       13.40688       54.25507
H         83.81813       12.53789       54.86338
N         85.84969       12.33574       56.74721
C         86.56535       12.21676       58.01778
C         85.64607       12.04837       59.23003
O         86.16195       11.96236       60.33600
C         87.50117       13.43162       58.23545
C         88.13316       13.91972       56.95591
O         88.87915       13.13541       56.15364
O         87.89326       15.05794       56.58760
H         86.00429       11.58643       56.05496
H         87.20596       11.30971       57.94666
H         88.27117       13.18856       58.99911
H         86.90446       14.28044       58.64182
N         84.28406       12.04014       59.11414
C         83.38775       12.04353       60.26714
C         83.34557       10.63210       60.84251
O         82.89624        9.75555       60.11667
C         81.94803       12.53603       59.85684
C         81.99909       13.87560       59.05822
C         81.06671       12.70517       61.10790
C         80.63253       14.40566       58.61781
H         83.86565       12.08188       58.17996
H         83.76189       12.78747       60.99221
H         81.48139       11.77172       59.19669
H         82.56086       13.73194       58.11836
H         82.51623       14.65858       59.64877
H         81.46836       13.52310       61.74550
H         80.02312       12.96111       60.83982
H         81.01539       11.76197       61.68783
H         80.02003       14.71924       59.48626
H         80.77672       15.30075       57.97566
H         80.08845       13.63496       58.03144
N         83.77612       10.27037       62.09022
C         84.32918       11.14660       63.12388
C         85.30509       10.37595       64.01682
O         85.18792        9.16338       64.13486
C         83.15793       11.69990       63.95241
C         83.55395       12.48132       65.16186
O         83.12139       12.06986       66.36738
O         84.23184       13.49118       65.06506
H         83.63977        9.27719       62.33663
H         84.90978       11.96950       62.66051
H         82.52809       10.84860       64.29141
H         82.54465       12.35616       63.31856
N         86.32255       11.02972       64.65658
C         87.30496       10.34461       65.48861
C         87.46394       10.91252       66.88899
O         88.26344       10.34804       67.62320
H         86.43912       12.04194       64.50008
H         88.29532       10.42089       64.99081
H         87.06349        9.26476       65.58507
N         86.80660       12.02799       67.33274
C         87.14334       12.65690       68.61366
C         85.98948       13.38181       69.31522
O         86.19906       13.81068       70.44183
C         88.37808       13.56642       68.42048
C         88.23847       14.53233       67.26857
O         87.27443       15.46640       67.25616
O         89.00892       14.46403       66.32429
H         86.22337       12.54667       66.66678
H         87.42923       11.86389       69.34157
H         89.24940       12.91124       68.20061
H         88.60729       14.11421       69.35982
N         84.75147       13.53664       68.76422
C         83.62577       14.15035       69.46074
C         83.77782       15.63409       69.75031
O         82.86577       16.19236       70.34269
H         84.56726       13.16718       67.83267
H         83.45096       13.60238       70.41205
H         82.71403       14.03639       68.83351
N         84.87358       16.34671       69.35546
C         85.08628       17.76786       69.60667
C         84.11170       18.66733       68.85391
O         84.15574       19.87008       69.06814
C         85.16959       18.06964       71.12182
C         86.30016       17.24272       71.76813
C         86.59895       17.61081       73.19870
N         87.59443       16.97003       73.85474
O         85.96718       18.48975       73.76673
H         85.62097       15.86801       68.85283
H         86.08371       18.04450       69.19637
H         84.20634       17.87456       71.63924
H         85.41308       19.14806       71.24305
H         87.23634       17.40094       71.19008
H         86.03717       16.16459       71.72846
H         88.13984       16.23071       73.38631
H         87.82764       17.21562       74.82799
N         83.28499       18.17587       67.88208
C         82.42398       19.01891       67.05214
C         82.84944       18.99387       65.58436
O         82.23814       19.70903       64.79970
C         80.93664       18.57606       67.18463
C         80.69498       17.13156       66.69900
C         80.44244       18.73046       68.62786
H         83.29583       17.16939       67.67826
H         82.49829       20.08015       67.37539
H         80.31866       19.25013       66.54999
H         81.01590       17.00985       65.64302
H         81.23691       16.39134       67.32334
H         79.61295       16.88793       66.75144
H         79.36582       18.46368       68.69298
H         81.01188       18.07059       69.31574
H         80.55919       19.78351       68.96015
N         83.83917       18.17210       65.12600
C         84.16599       18.00859       63.71506
C         85.66313       18.20572       63.46542
O         86.43921       18.32805       64.40439
C         83.69069       16.57969       63.33720
C         84.00517       16.11846       61.93962
N         84.82059       15.05523       61.74297
O         83.52496       16.70343       60.98015
H         84.33515       17.55189       65.78185
H         83.61869       18.74937       63.09055
H         82.58862       16.51921       63.47897
H         84.15601       15.87214       64.05329
H         85.22837       14.54578       62.54155
H         85.05432       14.74032       60.79070
N         86.12383       18.21205       62.18451
C         87.52004       18.22317       61.76810
C         87.73254       19.36217       60.77565
O         86.85885       19.57533       59.94427
C         87.77296       16.84619       61.11584
C         89.19135       16.58818       60.67275
C         90.25609       16.59461       61.58943
C         89.45175       16.28542       59.33085
C         91.55901       16.31364       61.15916
C         90.74906       15.99462       58.90377
C         91.80959       16.01466       59.81522
O         93.06734       15.74582       59.41068
H         85.43244       18.14190       61.42639
H         88.20736       18.32242       62.63661
H         87.07216       16.72357       60.25885
H         87.52130       16.05628       61.85770
H         90.07936       16.80744       62.63550
H         88.64309       16.26874       58.61833
H         92.37362       16.32099       61.87157
H         90.92984       15.75283       57.86378
H         93.27676       15.54532       58.48656
N         88.87089       20.12045       60.77769
C         89.08792       21.24859       59.86561
C         90.26776       20.96902       58.91834
O         91.33794       21.52473       59.12725
C         89.31208       22.53577       60.69466
C         89.33401       23.78941       59.79292
C         89.61668       25.05888       60.54702
O         89.85680       25.04718       61.87289
O         89.64532       26.11919       59.94300
H         89.61538       19.89486       61.45610
H         88.18165       21.44602       59.26084
H         90.26104       22.44735       61.26941
H         88.47859       22.65234       61.42216
H         88.34581       23.88498       59.29179
H         90.11135       23.69269       59.00767
N         90.18773       20.11850       57.85015
C         88.97966       19.40329       57.46079
C         87.91844       20.32503       56.88617
O         88.18277       21.50451       56.69288
C         89.31374       18.24016       56.51426
C         89.68953       18.55362       55.05629
C         90.15058       17.25127       54.45673
O         89.33389       16.52178       53.67541
O         91.17282       16.73337       54.87970
H         91.05173       19.95166       57.30972
H         88.59993       18.90608       58.36750
H         88.44165       17.55339       56.48096
H         90.15335       17.70315       56.99102
H         90.50345       19.30390       54.97688
H         88.78705       18.93583       54.53067
N         86.67972       19.83997       56.59341
C         85.61029       20.65456       56.05223
H         84.74632       20.63484       56.74892
H         85.91367       21.71247       55.90383
H         85.29331       20.24082       55.07254
H         86.47432       18.84526       56.76840
Ca        89.45421       14.35626       54.32833
O         90.13150       11.55075       53.28771
H         89.95751       11.54785       52.31295
H         90.07083       10.59951       53.55518
O         92.11393       13.56388       55.66192
H         92.40122       13.21296       56.54180
H         92.35122       12.84903       55.01902
O         92.16177       14.31668       52.53009
H         92.50192       15.22984       52.70559
H         92.96851       13.79128       52.29867

Ca 1.0



