%chk=apoCaM-CA-Ng.loop1.water1.frame1272.chk
%nprocshared=20
%mem=10GB
%nosave
#b3lyp/svp scf=(tight,noincore,xqc) Test 
#IOP(5/87=12) Density=Current Pop=(MK,readradii) iop(6/33=2) iop(6/42=6)

apoCaM-CA-Ng.loop1.water1.frame1272 

   0  1 
C         70.95514       36.31035       12.04191
C         71.68285       37.50717       11.50750
O         71.39475       38.60825       11.95614
H         69.87085       36.40630       11.81698
H         71.32943       35.37064       11.58661
H         71.09117       36.25640       13.14209
N         72.60731       37.37805       10.50903
C         73.29631       38.52199        9.92049
C         72.69851       38.80114        8.55612
O         73.40976       38.90252        7.56526
C         74.81453       38.26096        9.84592
C         75.40864       37.94781       11.18842
O         75.35482       38.85303       12.18317
O         75.95513       36.87251       11.37882
H         72.77843       36.44496       10.10419
H         73.11588       39.43226       10.52832
H         75.32846       39.15340        9.42746
H         74.99571       37.40206        9.16073
N         71.34797       38.90934        8.44685
C         70.65855       39.16471        7.19211
C         70.91521       40.58407        6.71606
O         71.37933       40.72491        5.59381
C         69.15248       38.81870        7.28076
C         68.98855       37.33811        7.67851
C         67.55023       36.83454        7.57471
C         67.49246       35.36676        8.02940
N         66.15666       34.80471        7.85142
H         70.78460       38.75877        9.29500
H         71.05530       38.46185        6.42391
H         68.70970       38.97438        6.27230
H         68.60039       39.46111        7.99703
H         69.34246       37.19013        8.72067
H         69.61215       36.71068        7.00379
H         67.21865       36.91391        6.51628
H         66.87773       37.44881        8.21207
H         67.78167       35.30475        9.10319
H         68.21718       34.76052        7.44028
H         65.45380       35.36193        8.38806
H         65.90882       34.79868        6.83529
H         66.15502       33.82006        8.20405
N         70.71649       41.70130        7.47800
C         70.25411       41.73133        8.86479
C         71.40657       42.09098        9.78828
O         72.50857       42.35053        9.32287
C         69.01245       42.62991        9.00074
C         69.22229       43.98088        8.40023
O         70.15016       44.81777        8.89852
O         68.56909       44.30316        7.42179
H         70.98638       42.60454        7.05605
H         69.92899       40.74211        9.20707
H         68.69632       42.73154       10.06115
H         68.17956       42.13674        8.45163
N         71.23579       42.00941       11.13521
C         72.32542       42.11063       12.08891
C         73.03693       43.46703       12.07801
O         72.08749       44.46716       12.24288
H         70.30315       41.77462       11.50769
H         73.06970       41.31366       11.88223
H         71.91662       41.93038       13.10768
N         74.01130       43.47513       13.17789
C         74.80091       44.69790       13.46778
C         75.41366       44.47874       14.84821
O         75.86445       43.36739       15.09539
C         75.95628       44.92601       12.45429
C         75.47422       45.25832       11.07200
O         75.69121       44.49623       10.14402
O         74.74603       46.36964       10.86364
H         74.66781       42.66984       13.03670
H         74.14740       45.59269       13.48132
H         76.60036       44.02056       12.42350
H         76.57978       45.78169       12.79469
N         75.52003       45.42791       15.82113
C         75.23227       46.84502       15.71003
C         73.77977       47.20035       15.52839
O         72.93423       46.71044       16.26293
H         75.94191       45.13044       16.71600
H         75.86755       47.29726       14.91852
H         75.53585       47.31732       16.67031
N         73.45142       48.18092       14.64192
C         72.11009       48.73944       14.51226
C         71.19360       47.76052       13.81086
O         71.63064       47.11518       12.87380
C         72.14498       50.09263       13.75935
C         73.00376       51.12319       14.51731
O         70.83505       50.58926       13.64801
H         74.21514       48.61032       14.09758
H         71.70823       48.97355       15.52435
H         72.56786       49.92770       12.74408
H         70.86373       51.33911       12.99776
H         74.05864       50.79321       14.60980
H         73.00346       52.09222       13.97616
H         72.59697       51.28947       15.53824
N         69.89139       47.64129       14.20104
C         68.89250       46.73080       13.63755
C         68.67746       46.97131       12.14615
O         69.57316       46.70508       11.35951
C         69.24428       45.23554       13.89062
C         69.63024       44.97722       15.36748
C         68.07884       44.32604       13.44303
C         70.18711       43.57054       15.60303
H         69.56905       48.24651       14.97215
H         67.94155       46.93536       14.17875
H         70.11952       44.99261       13.27864
H         68.76074       45.16241       16.03332
H         70.44374       45.67404       15.65789
H         67.83004       44.49152       12.37429
H         68.33874       43.25364       13.53559
H         67.17257       44.53242       14.05182
H         70.50947       43.47315       16.66037
H         69.42831       42.78797       15.40708
H         71.07129       43.39756       14.95210
N         67.47862       47.42315       11.68720
C         67.17131       47.55420       10.26351
C         66.97021       49.00096        9.84035
O         66.77052       49.22235        8.65039
C         65.96387       46.65294        9.89129
C         64.69159       46.95537       10.69126
O         66.30099       45.30580       10.10011
H         66.75181       47.66639       12.37362
H         68.02549       47.20001        9.65292
H         65.71419       46.81101        8.81405
H         66.72541       44.98086        9.26448
H         64.83494       46.73381       11.76959
H         64.38874       48.01550       10.57058
H         63.86567       46.30457       10.33337
N         67.03066       50.04241       10.71860
C         66.88080       51.43005       10.29335
C         68.05946       51.83744        9.42136
O         69.17160       51.90537        9.92860
C         66.77080       52.35948       11.53306
C         66.64704       53.84592       11.17135
O         65.68309       51.97269       12.33648
H         67.17139       49.85071       11.72210
H         65.93183       51.51702        9.71723
H         67.69419       52.24490       12.14382
H         64.85673       52.07833       11.79548
H         67.54205       54.19102       10.61252
H         65.74244       54.02466       10.55337
H         66.57440       54.44801       12.10186
N         67.88571       52.11220        8.09382
C         68.95645       52.55913        7.20357
C         70.10901       51.57839        7.24585
O         71.20556       51.91158        7.67434
C         69.35478       54.01717        7.50618
C         68.13164       54.93406        7.33158
C         68.49657       56.41751        7.42742
C         67.26223       57.33504        7.33146
N         66.52929       57.17498        6.07203
H         66.94861       51.98795        7.68117
H         68.57482       52.56672        6.15682
H         70.13570       54.31766        6.77218
H         69.77142       54.12369        8.53068
H         67.37359       54.68707        8.10603
H         67.69517       54.74459        6.32812
H         69.21156       56.67230        6.61433
H         68.99279       56.60928        8.40322
H         67.61057       58.38793        7.41450
H         66.57736       57.13233        8.18448
H         67.16913       57.31057        5.25623
H         66.07768       56.23398        6.02225
H         65.76903       57.89131        6.02904
N         69.88554       50.31455        6.80868
C         70.82658       49.21436        6.94200
C         70.07660       48.02000        7.50529
O         70.41737       47.62801        8.61178
C         71.61264       48.96602        5.63114
C         72.44854       47.67201        5.62937
C         73.43499       47.58323        6.75659
O         73.36476       46.55766        7.62730
O         74.31624       48.41890        6.87566
H         68.95256       50.12101        6.42088
H         71.60590       49.48355        7.69205
H         72.27728       49.84279        5.46432
H         70.95322       48.91618        4.74976
H         73.00301       47.60893        4.66880
H         71.76098       46.80001        5.68030
N         69.03497       47.38286        6.88859
C         68.47141       47.65141        5.58014
H         67.39730       47.90592        5.69064
H         68.94775       48.47395        5.03703
H         68.55944       46.73946        4.95310
H         68.58004       46.62488        7.40619
Ca        72.62580       45.83262       10.54581
O         72.92035       48.90895       10.13805
H         73.55707       48.46044        9.52881
H         73.45490       49.62946       10.55448

Ca 1.0



