%chk=apoCaM-CA-Ng.loop3.water4.frame185.chk
%nprocshared=20
%mem=10GB
%nosave
#b3lyp/svp scf=(tight,noincore,xqc) Test 
#IOP(5/87=12) Density=Current Pop=(MK,readradii) iop(6/33=2) iop(6/42=6)

apoCaM-CA-Ng.loop3.water4.frame185 

   0  1 
C        -14.33958       26.33419        2.32744
C        -15.37237       25.88425        1.33783
O        -16.48430       26.38934        1.35561
H        -13.46486       26.74614        1.77931
H        -14.74322       27.12433        2.99528
H        -14.00695       25.47226        2.94227
N        -15.04857       24.93314        0.41920
C        -15.93308       24.46090       -0.64109
C        -17.14578       23.71449       -0.10091
O        -18.14626       23.63504       -0.80168
C        -16.33571       25.60600       -1.60525
C        -15.16179       26.37443       -2.16454
O        -15.36001       27.25903       -2.97879
O        -13.89629       26.10813       -1.78645
H        -14.09678       24.53574        0.44664
H        -15.36665       23.72446       -1.25279
H        -17.01812       26.31606       -1.09513
H        -16.89312       25.16775       -2.46154
N        -17.10120       23.06816        1.10328
C        -18.22141       22.29891        1.63925
C        -18.65721       22.89201        2.96296
O        -18.95378       22.17121        3.90673
C        -17.79933       20.81414        1.75225
C        -17.39004       20.20910        0.39298
C        -18.57520       20.11151       -0.58020
C        -18.13998       19.61706       -1.96198
N        -19.27259       19.63321       -2.88841
H        -16.23949       23.10676        1.66730
H        -19.10962       22.38994        0.98348
H        -18.61394       20.20117        2.19412
H        -16.92008       20.76095        2.43318
H        -16.97818       19.19032        0.55906
H        -16.58076       20.82724       -0.05425
H        -19.02884       21.10762       -0.72982
H        -19.34575       19.42982       -0.15703
H        -17.72573       18.58756       -1.88692
H        -17.34628       20.29051       -2.35661
H        -20.02793       18.99516       -2.54802
H        -19.64968       20.60613       -2.97396
H        -18.95244       19.31697       -3.83147
N        -18.70500       24.24425        3.08521
C        -19.10009       24.94150        4.29457
C        -20.58750       24.73215        4.56516
O        -21.37655       24.69224        3.63159
C        -18.77929       26.43841        4.11923
C        -19.08863       27.22710        5.34948
O        -18.41225       27.04464        6.49345
O        -19.98636       28.04729        5.33172
H        -18.40710       24.81231        2.27873
H        -18.48731       24.57397        5.15006
H        -19.36771       26.82794        3.26148
H        -17.70030       26.57774        3.88571
N        -21.03423       24.66907        5.84712
C        -22.42658       24.50757        6.24866
C        -23.36609       25.53083        5.63914
O        -24.38030       25.12569        5.08945
H        -20.33142       24.74494        6.59311
H        -22.48314       24.59451        7.35540
H        -22.77750       23.48775        5.98369
N        -23.09610       26.86641        5.68611
C        -23.98717       27.88859        5.12579
C        -23.41883       28.54143        3.86763
O        -24.05029       29.44886        3.34377
C        -24.40027       28.89943        6.21957
C        -23.31612       29.79396        6.76714
N        -23.60661       31.07151        7.09370
O        -22.20130       29.35778        7.00491
H        -22.20898       27.15709        6.11506
H        -24.94123       27.41942        4.80007
H        -24.82155       28.32665        7.07194
H        -25.22466       29.54120        5.83519
H        -24.55016       31.46365        6.96134
H        -22.89028       31.65286        7.53472
N        -22.28786       28.06900        3.26696
C        -21.77676       28.57179        2.00169
C        -21.24730       29.98156        2.11633
O        -21.70816       30.86181        1.40512
H        -21.79538       27.26579        3.67583
H        -22.56660       28.49362        1.22273
H        -20.92972       27.92662        1.67820
N        -20.22955       30.24043        2.97941
C        -19.55330       31.52037        3.13640
C        -19.65145       32.01697        4.54869
O        -19.40578       31.25291        5.47255
C        -18.05484       31.33949        2.86260
C        -17.79504       31.00363        1.43128
C        -18.08257       31.94602        0.43237
C        -17.25251       29.76098        1.08251
C        -17.83103       31.64727       -0.90417
C        -17.00465       29.46303       -0.25759
C        -17.29496       30.40702       -1.25548
O        -17.06502       30.13859       -2.55356
H        -19.87130       29.45950        3.53454
H        -19.96497       32.29067        2.44866
H        -17.66191       30.54461        3.53696
H        -17.50294       32.27762        3.09642
H        -18.49321       32.91483        0.68981
H        -17.02703       29.02638        1.84664
H        -18.05160       32.38180       -1.66735
H        -16.58564       28.50307       -0.51469
H        -16.71084       29.29038       -2.84477
N        -19.92128       33.32970        4.78290
C        -19.89220       33.90520        6.11371
C        -21.30970       34.13893        6.53297
O        -21.71423       33.61762        7.55403
C        -19.04884       35.21068        6.18734
C        -17.65458       35.09470        5.51860
C        -18.91368       35.67080        7.65576
C        -16.77967       33.94481        6.01720
H        -20.14383       33.94704        3.98755
H        -19.42501       33.19602        6.81723
H        -19.58065       36.01630        5.63534
H        -17.10976       36.05297        5.66826
H        -17.78871       34.96105        4.42378
H        -18.35864       36.63068        7.71197
H        -19.91043       35.83346        8.11550
H        -18.37913       34.91526        8.26938
H        -15.79877       33.98164        5.49772
H        -16.60090       34.00400        7.10895
H        -17.25309       32.97672        5.76856
N        -22.13942       34.88868        5.76309
C        -23.53240       35.12519        6.10375
C        -23.63491       35.90547        7.40161
O        -24.54857       35.64914        8.17336
C        -24.23411       35.88958        4.97403
O        -24.13282       35.17820        3.76586
H        -21.76419       35.29410        4.89373
H        -24.05230       34.14337        6.20575
H        -23.80157       36.91175        4.87152
H        -25.31170       36.00812        5.21420
H        -23.40551       35.59898        3.23499
N        -22.67870       36.83130        7.73108
C        -22.66734       37.62363        8.95883
C        -22.69324       36.77601       10.23605
O        -22.98987       37.32176       11.28980
C        -23.81791       38.63951        8.92402
H        -21.90382       36.99446        7.07179
H        -21.73871       38.23517        8.97988
H        -23.74025       39.32883        9.79271
H        -23.74010       39.25775        8.00264
H        -24.80954       38.14466        8.94368
N        -22.42821       35.43573       10.21543
C        -22.61729       34.54601       11.35594
C        -21.37910       33.72211       11.67240
O        -20.39707       33.79559       10.94759
C        -23.77355       33.60468       11.00885
H        -22.14173       35.00470        9.33602
H        -22.88923       35.12725       12.26240
H        -23.52483       33.00981       10.10121
H        -23.99791       32.91032       11.84287
H        -24.68480       34.20291       10.79538
N        -21.37434       32.90579       12.77497
C        -20.28401       32.00708       13.16020
C        -18.95160       32.71964       13.37654
O        -17.94395       32.03435       13.49960
C        -20.08930       30.89531       12.11946
C        -21.34024       30.05393       11.83890
C        -20.93700       29.00804       10.85286
O        -20.39436       29.42532        9.69878
O        -21.00680       27.82057       11.12212
H        -22.20750       32.90373       13.38197
H        -20.55488       31.49162       14.10866
H        -19.30311       30.19853       12.49197
H        -19.72229       31.34435       11.17597
H        -22.14250       30.68350       11.39582
H        -21.72038       29.58190       12.77065
N        -18.85467       34.07750       13.43685
C        -17.58834       34.77446       13.52260
H        -16.71831       34.08828       13.44269
H        -17.52349       35.49767       12.68259
H        -17.52779       35.32253       14.48373
H        -19.70296       34.65905       13.42477
Ca       -19.39562       28.29010        8.06712
O        -19.64840       31.64320        8.57698
H        -19.30029       32.42020        9.07925
H        -20.62970       31.68516        8.70339
O        -20.71904       26.05142        8.49942
H        -21.33890       26.62241        9.01248
H        -20.27878       25.46210        9.15918
O        -17.05819       29.99337        6.40441
H        -16.81190       30.90921        6.68633
H        -16.38617       29.75552        5.71814
O        -17.10298       29.58736        9.52409
H        -16.37886       28.97268        9.24427
H        -17.61084       29.07811       10.20473

Ca 1.0



