%chk=apoCaM-CA-Ng.loop1.water4.frame605.chk
%nprocshared=20
%mem=10GB
%nosave
#b3lyp/svp scf=(tight,noincore,xqc) Test 
#IOP(5/87=12) Density=Current Pop=(MK,readradii) iop(6/33=2) iop(6/42=6)

apoCaM-CA-Ng.loop1.water4.frame605 

   0  1 
C         48.47857        8.37782      -10.88376
C         47.32224        8.91192      -11.67948
O         46.18715        8.70216      -11.27756
H         49.45129        8.68364      -11.32355
H         48.42559        8.79081       -9.85282
H         48.43495        7.27119      -10.83334
N         47.53730        9.63929      -12.81362
C         46.46912       10.31289      -13.55023
C         47.00061       10.86990      -14.87419
O         47.92545       11.67001      -14.86174
C         45.80259       11.40647      -12.66486
C         46.77146       12.29900      -11.90300
O         46.77895       13.63664      -12.06534
O         47.52343       11.80994      -11.07559
H         48.50892        9.75282      -13.14266
H         45.68479        9.56890      -13.81322
H         45.17776       10.90729      -11.89444
H         45.10590       11.99547      -13.29523
N         46.45878       10.44902      -16.06386
C         46.96931       10.80933      -17.38735
C         45.90571       11.58179      -18.17865
O         45.37377       11.06168      -19.15111
C         47.35779        9.51246      -18.14465
C         48.16531        9.82302      -19.42830
C         48.22726        8.63692      -20.40875
C         46.88931        8.34711      -21.13177
N         46.48532        9.43890      -22.02473
H         45.65745        9.79942      -16.03853
H         47.88352       11.43652      -17.29805
H         46.42075        8.95820      -18.36134
H         47.98197        8.84553      -17.50959
H         49.19444       10.09367      -19.10579
H         47.77451       10.70512      -19.96828
H         48.55863        7.73036      -19.85759
H         48.98806        8.85441      -21.18952
H         46.07621        8.13546      -20.40715
H         47.02409        7.43227      -21.74941
H         46.29783       10.32147      -21.50144
H         47.22659        9.60302      -22.74258
H         45.60343        9.17164      -22.51808
N         45.56300       12.84976      -17.82438
C         44.57677       13.65840      -18.56029
C         45.24564       14.90310      -19.14183
O         46.35538       15.20575      -18.72376
C         43.36138       14.00451      -17.65620
C         43.74939       14.69393      -16.38216
O         43.37306       15.82545      -16.12283
O         44.50706       14.01117      -15.51637
H         46.06587       13.26275      -17.02734
H         44.19632       13.06980      -19.41338
H         42.84143       13.06349      -17.37642
H         42.62905       14.62509      -18.19414
N         44.69592       15.68692      -20.12487
C         43.41868       15.49397      -20.80023
C         43.35253       14.21306      -21.59746
O         42.51292       13.37848      -21.29070
H         45.23881       16.50927      -20.42762
H         43.25550       16.33127      -21.51246
H         42.59161       15.54826      -20.07301
N         44.19874       13.99259      -22.64630
C         44.16268       12.76807      -23.44648
C         45.40764       12.57817      -24.31443
O         45.99224       11.50619      -24.24209
C         42.84580       12.65538      -24.26051
C         42.57179       13.78699      -25.21540
O         43.26967       13.95895      -26.20028
O         41.49966       14.57869      -25.02102
H         44.88259       14.72705      -22.87269
H         44.16577       11.89790      -22.74950
H         41.99752       12.61136      -23.54820
H         42.83476       11.69686      -24.82348
N         45.87107       13.53513      -25.16776
C         46.97075       13.28954      -26.09144
C         48.27817       12.98541      -25.39194
O         48.78652       13.84564      -24.69299
H         45.40848       14.45425      -25.20359
H         47.12428       14.18689      -26.72984
H         46.68552       12.45101      -26.76260
N         48.90730       11.78774      -25.57776
C         50.21930       11.47981      -25.00334
C         50.21803       11.51708      -23.48574
O         49.19254       11.25031      -22.87980
C         50.75845       10.10988      -25.49687
C         49.89630        8.91921      -25.04740
O         50.83572       10.10434      -26.89876
H         48.45634       11.09687      -26.19495
H         50.92380       12.26373      -25.36174
H         51.77609        9.94133      -25.07040
H         51.65935       10.60172      -27.14379
H         50.34179        7.97382      -25.42279
H         49.85006        8.85631      -23.94008
H         48.86231        8.99215      -25.44292
N         51.37512       11.76759      -22.80738
C         51.46312       11.79209      -21.34749
C         50.71175       12.98626      -20.76126
O         50.19911       12.85839      -19.65934
C         52.94765       11.75139      -20.86941
C         53.71580       10.51465      -21.42568
C         53.06445       11.79464      -19.33236
C         53.12150        9.15093      -21.04913
H         52.22908       11.92755      -23.36255
H         50.97204       10.87311      -20.95992
H         53.46455       12.65801      -21.25648
H         54.76481       10.55373      -21.05994
H         53.76598       10.56144      -22.53258
H         52.64442       12.73862      -18.92879
H         52.52953       10.94507      -18.86037
H         54.13244       11.76409      -19.02881
H         53.08577        9.01318      -19.94995
H         52.10338        9.02508      -21.47161
H         53.75635        8.34593      -21.47473
N         50.54016       14.14556      -21.46765
C         49.70301       15.24705      -20.99091
C         50.39930       16.58193      -21.14552
O         50.80601       16.91467      -22.24893
C         48.40817       15.28707      -21.81692
C         47.63824       13.97943      -21.66123
O         47.60341       16.35311      -21.38671
H         50.93385       14.21625      -22.41679
H         49.40481       15.09959      -19.92930
H         48.68647       15.43898      -22.88312
H         47.03719       16.61681      -22.15891
H         47.34658       13.79862      -20.60932
H         46.75503       13.98950      -22.30058
H         48.24496       13.13579      -21.99374
N         50.49840       17.43316      -20.08386
C         50.99962       18.79820      -20.21367
C         51.21453       19.38790      -18.82380
O         52.35496       19.67063      -18.48044
C         50.03644       19.64798      -21.11195
C         50.55760       21.06029      -21.36709
O         48.74988       19.74088      -20.55680
H         50.17828       17.10553      -19.16008
H         51.99580       18.75322      -20.70907
H         49.95231       19.18584      -22.12062
H         48.29455       18.87478      -20.72137
H         50.64797       21.62808      -20.41816
H         51.54497       21.01801      -21.87241
H         49.84783       21.59932      -22.03324
N         50.17302       19.57732      -17.96513
C         50.31701       20.05048      -16.59478
C         49.58465       19.09336      -15.67398
O         48.42235       18.80684      -15.93615
C         49.72879       21.46780      -16.46153
C         49.99466       22.03776      -15.05518
C         49.43760       23.45348      -14.89173
C         49.74794       23.99185      -13.48677
N         49.19076       25.33027      -13.30096
H         49.21781       19.36879      -18.28708
H         51.39074       20.12330      -16.30971
H         48.63786       21.45486      -16.67848
H         50.22558       22.12998      -17.20484
H         51.09341       22.05853      -14.87764
H         49.52520       21.38430      -14.28831
H         48.33681       23.43071      -15.04512
H         49.89394       24.12554      -15.65116
H         50.85085       24.02911      -13.33848
H         49.31627       23.30903      -12.72104
H         49.42492       25.66677      -12.33893
H         49.59909       25.99131      -14.00084
H         48.15042       25.30146      -13.40476
N         50.16374       18.60640      -14.54153
C         49.43392       17.72572      -13.63709
C         49.18547       16.36591      -14.28406
O         48.02320       16.01356      -14.41425
C         50.11440       17.61670      -12.25030
C         49.35264       16.74442      -11.22645
C         47.96952       17.24119      -10.88512
O         47.69030       17.63280       -9.62729
O         47.08146       17.24790      -11.72238
H         51.11122       18.92807      -14.28824
H         48.45764       18.21604      -13.43577
H         50.21788       18.64130      -11.82892
H         51.13417       17.19849      -12.33976
H         49.95390       16.73732      -10.29157
H         49.28280       15.69664      -11.58863
N         50.16687       15.52025      -14.72220
C         51.59436       15.76935      -14.70165
H         51.98866       15.70302      -15.73689
H         51.87061       16.76117      -14.31596
H         52.09306       14.99737      -14.07920
H         49.87523       14.61492      -15.12287
Ca        45.44617       14.56119      -13.58876
O         42.63086       13.59513      -12.83867
H         42.39339       14.19654      -13.58850
H         42.65366       12.69180      -13.24324
O         44.79134       15.11837      -10.31671
H         45.51375       14.62033       -9.85790
H         44.06178       14.45706      -10.42038
O         43.38390       16.97327      -12.50412
H         43.35955       17.78209      -11.93334
H         42.59704       17.06429      -13.09827
O         45.53979       17.91697      -15.12853
H         46.06754       17.32696      -15.72302
H         44.89089       18.35642      -15.73342

Ca 1.0



