%chk=apoCaM-CA-Ng.loop1.water2.frame1182.chk
%nprocshared=20
%mem=10GB
%nosave
#b3lyp/svp scf=(tight,noincore,xqc) Test 
#IOP(5/87=12) Density=Current Pop=(MK,readradii) iop(6/33=2) iop(6/42=6)

apoCaM-CA-Ng.loop1.water2.frame1182 

   0  1 
C         15.73671       23.35400        9.54242
C         17.09172       23.72097        9.02253
O         17.56960       24.80302        9.33432
H         15.04635       23.18653        8.68893
H         15.80801       22.42958       10.15046
H         15.32612       24.17160       10.17412
N         17.76138       22.86922        8.19182
C         19.05463       23.19806        7.60184
C         18.90122       23.41177        6.11132
O         19.63711       22.84879        5.31231
C         20.13958       22.17097        7.99818
C         19.91156       20.75385        7.52913
O         18.93672       20.44674        6.86136
O         20.81401       19.80731        7.84795
H         17.30739       21.98071        7.93508
H         19.39844       24.17456        7.98831
H         20.21676       22.16099        9.10664
H         21.11672       22.51385        7.59287
N         17.94217       24.27438        5.68191
C         17.76351       24.66081        4.29091
C         18.99510       25.40777        3.79694
O         19.54978       24.97961        2.79437
C         16.48026       25.50751        4.06868
C         15.19276       24.89144        4.65941
C         14.89598       23.46575        4.16563
C         13.68010       22.83567        4.86646
N         12.43585       23.55829        4.60253
H         17.32254       24.68277        6.39389
H         17.63310       23.74036        3.68071
H         16.34794       25.64914        2.97315
H         16.58140       26.51715        4.51169
H         14.35156       25.56534        4.39425
H         15.26131       24.87612        5.76595
H         15.75522       22.80630        4.40619
H         14.75005       23.46887        3.06399
H         13.86211       22.79346        5.96426
H         13.57452       21.79055        4.50025
H         12.46675       24.51500        5.02035
H         12.26590       23.61848        3.57275
H         11.64544       23.03816        5.04733
N         19.54366       26.49252        4.43170
C         19.07599       27.08842        5.68799
C         20.06987       26.81498        6.80775
O         21.16433       26.33628        6.54267
C         18.74719       28.57905        5.50082
C         19.88141       29.34809        4.89492
O         21.07523       29.40554        5.51290
O         19.72594       29.90479        3.81987
H         20.40378       26.88792        4.01938
H         18.14466       26.62917        6.02875
H         18.46259       29.03457        6.47292
H         17.87032       28.65889        4.82019
N         19.69692       26.98754        8.11346
C         20.54443       26.57432        9.22551
C         21.77742       27.41823        9.35842
O         21.85293       28.45613        8.71788
H         18.74790       27.33082        8.32406
H         20.84711       25.51870        9.06617
H         19.98405       26.62793       10.18389
N         22.80933       27.00720       10.15290
C         24.05929       27.74709       10.29682
C         24.40325       28.00819       11.76256
O         23.82670       27.35611       12.62546
C         25.20947       26.94903        9.63063
C         25.04150       26.67338        8.15157
O         24.73078       27.63805        7.25207
O         25.24564       25.54151        7.74260
H         22.72424       26.09585       10.63237
H         23.95941       28.72698        9.82460
H         25.33221       25.97877       10.16436
H         26.17264       27.46525        9.74195
N         25.35574       28.91202       12.15628
C         25.99384       29.88372       11.27104
C         25.01688       30.96276       10.87418
O         23.96599       31.07088       11.48899
H         25.60513       28.96064       13.15576
H         26.42615       29.40121       10.38345
H         26.83700       30.38462       11.79215
N         25.31010       31.81879        9.85008
C         24.40492       32.89611        9.43986
C         23.04084       32.36553        8.89007
O         22.82559       31.02359        9.17651
C         25.10362       33.79463        8.37987
C         24.27886       35.02072        7.96743
O         25.40426       33.03457        7.23793
H         26.21749       31.71055        9.37180
H         24.22117       33.51786       10.34503
H         26.04887       34.16076        8.84618
H         26.12471       33.51552        6.75159
H         23.35231       34.71678        7.43617
H         24.02189       35.63184        8.85825
H         24.86905       35.65232        7.27069
N         21.92065       33.15601        9.43209
C         20.57346       32.82468        8.91337
C         20.56180       32.70361        7.40126
O         21.19804       31.82203        6.84627
C         19.90440       31.59849        9.60737
C         19.88866       31.82216       11.14228
C         18.47122       31.41139        9.05550
C         19.21278       30.70247       11.93542
H         22.09335       34.16555        9.23119
H         19.92454       33.68497        9.19609
H         20.46280       30.66806        9.38379
H         19.36904       32.77640       11.38073
H         20.93789       31.89973       11.50047
H         18.48660       31.23824        7.95931
H         17.97904       30.52048        9.49186
H         17.85078       32.31013        9.26163
H         18.13045       30.64107       11.69995
H         19.69795       29.72683       11.72474
H         19.29675       30.92189       13.02056
N         19.81536       33.57747        6.68524
C         19.72559       33.58495        5.23525
C         20.30315       34.87690        4.67691
O         20.26763       35.03923        3.46444
C         18.24966       33.37015        4.80777
C         17.27337       34.40220        5.39074
O         17.83119       32.09099        5.21409
H         19.29153       34.29941        7.19904
H         20.32511       32.75898        4.79150
H         18.19542       33.45794        3.69521
H         17.73543       31.53315        4.39885
H         16.25340       34.21528        4.99483
H         17.21039       34.31704        6.49621
H         17.57738       35.43461        5.12108
N         20.84048       35.84107        5.48415
C         21.36915       37.10962        5.00066
C         22.69159       36.87605        4.27481
O         23.73791       36.88987        4.90966
C         21.50507       38.09992        6.19285
C         21.93247       39.49770        5.74708
O         20.26051       38.22242        6.84063
H         20.84742       35.69625        6.50321
H         20.62276       37.56061        4.30842
H         22.27354       37.72233        6.91153
H         20.27460       37.63261        7.63996
H         22.92554       39.47504        5.25484
H         21.18319       39.91896        5.04298
H         21.99468       40.16438        6.63422
N         22.70121       36.58492        2.94244
C         23.89404       36.27978        2.15948
C         24.62850       35.08064        2.74150
O         25.79648       35.18127        3.09085
C         24.75976       37.54781        1.97722
C         25.88494       37.33795        0.94153
C         26.58342       38.64079        0.52951
C         27.32153       39.33964        1.67909
N         27.99113       40.54718        1.19566
H         21.80353       36.55553        2.43929
H         23.55154       35.99041        1.14061
H         25.17260       37.88655        2.95062
H         24.08847       38.34370        1.58636
H         25.43603       36.91520        0.01626
H         26.64162       36.61662        1.31252
H         25.83061       39.33431        0.09527
H         27.32130       38.39168       -0.26443
H         28.07743       38.64741        2.11178
H         26.60338       39.62413        2.47758
H         28.69558       40.29938        0.46305
H         27.28846       41.21123        0.79561
H         28.48079       41.01293        1.99303
N         23.96592       33.90148        2.89977
C         24.59162       32.71034        3.46389
C         23.53954       31.66128        3.79238
O         23.46555       31.29098        4.95499
C         25.70866       32.12071        2.55641
C         26.52634       31.05339        3.30563
C         27.58703       30.44994        2.43139
O         27.27595       29.81838        1.43406
O         28.88719       30.58103        2.75762
H         22.96244       33.88232        2.66219
H         25.07021       33.01721        4.42151
H         26.41537       32.91789        2.24696
H         25.28643       31.67796        1.63348
H         25.86905       30.23480        3.66819
H         27.01154       31.53441        4.18312
N         22.67329       31.11708        2.88490
C         22.55025       31.45175        1.47893
H         21.52437       31.83318        1.28810
H         23.25653       32.22441        1.13401
H         22.70537       30.53729        0.87014
H         22.01813       30.40448        3.22692
Ca        23.99474       29.73483        7.70689
O         26.65668       29.90180        6.49638
H         26.62561       29.80094        7.48112
H         26.01831       30.63279        6.30023
O         23.78992       27.86506        4.40846
H         23.62712       26.90737        4.60150
H         24.16282       27.87436        3.49135

Ca 1.0



