%chk=apoCaM-CA-Ng.loop4.water3.frame497.chk
%nprocshared=20
%mem=10GB
%nosave
#b3lyp/svp scf=(tight,noincore,xqc) Test 
#IOP(5/87=12) Density=Current Pop=(MK,readradii) iop(6/33=2) iop(6/42=6)

apoCaM-CA-Ng.loop4.water3.frame497 

   -3  1 
C         53.25979       80.96053       88.40480
C         52.62666       82.10815       89.20315
O         51.59126       82.68161       88.44782
H         54.10499       80.51475       88.97270
H         52.51140       80.16747       88.20213
H         53.65130       81.33972       87.43458
N         53.62486       83.14316       89.51593
C         53.76573       83.55634       90.93127
C         53.03328       82.68069       91.95969
O         51.81456       82.62916       91.94998
C         53.46214       85.06819       91.05748
C         52.10262       85.53413       90.60061
O         51.26636       84.75694       90.17955
O         51.81720       86.84934       90.62803
H         54.56436       82.96161       89.08649
H         54.84816       83.48107       91.18180
H         54.20285       85.60805       90.42715
H         53.61327       85.38663       92.11066
N         53.76749       81.94487       92.85749
C         53.28638       81.04838       93.91859
C         52.75255       81.81391       95.13080
O         53.35257       81.69898       96.19125
C         52.30898       79.94640       93.41751
C         51.94748       78.91600       94.52869
C         52.83668       79.22992       92.16400
C         53.11355       78.04647       95.01936
H         54.79399       81.98786       92.76751
H         54.19372       80.51777       94.28107
H         51.37094       80.43796       93.12562
H         51.16000       78.23335       94.14159
H         51.51575       79.44690       95.40358
H         52.11041       78.45702       91.83831
H         52.95777       79.94558       91.32637
H         53.81759       78.74947       92.35280
H         53.52729       77.43129       94.19420
H         53.92367       78.65783       95.46428
H         52.74864       77.35081       95.80369
N         51.65623       82.62022       95.06486
C         51.18181       83.40466       96.20025
C         50.56255       82.54376       97.31691
O         51.07857       82.65521       98.42040
C         50.30030       84.57798       95.72841
C         51.10052       85.57280       94.92584
O         52.14949       86.20578       95.48616
O         50.79632       85.82503       93.77204
H         51.17419       82.73741       94.16835
H         52.06010       83.91604       96.66016
H         49.89119       85.11634       96.61093
H         49.47705       84.21804       95.09676
N         49.52792       81.64669       97.19887
C         48.81806       81.26369       95.99116
C         47.81244       82.29456       95.51980
O         47.65372       83.30699       96.18664
H         49.27915       81.11097       98.04589
H         48.23054       80.34620       96.20196
H         49.57650       81.01105       95.23509
N         47.05479       82.13464       94.38924
C         46.97950       80.92194       93.56527
C         48.33965       80.47692       93.05198
O         49.20519       81.32885       92.91996
C         46.03093       81.18074       92.34658
C         46.67593       82.10376       91.32823
O         46.22494       83.21491       91.10560
O         47.79478       81.66898       90.70327
H         46.43875       82.92336       94.13406
H         46.55221       80.13026       94.21600
H         45.07083       81.60158       92.71834
H         45.78592       80.24067       91.81656
N         48.59671       79.21115       92.61262
C         47.68994       78.08252       92.72650
C         47.64251       77.54737       94.13476
O         48.30922       78.07603       95.01295
H         49.51101       79.02712       92.17458
H         48.09151       77.25107       92.10799
H         46.68428       78.32202       92.33537
N         46.92259       76.42190       94.39257
C         46.96394       75.72131       95.67130
C         47.74120       74.40904       95.54945
O         47.97327       73.78229       96.57404
C         45.55339       75.59768       96.29563
C         44.45225       75.02460       95.39036
C         44.73935       73.63722       94.90678
N         44.87300       72.60958       95.77398
O         44.83768       73.43716       93.70854
H         46.39297       75.99611       93.61632
H         47.56113       76.30525       96.40621
H         45.21930       76.62232       96.57028
H         45.62175       75.01440       97.23948
H         44.31039       75.70135       94.52013
H         43.49357       75.01154       95.95184
H         44.78095       72.75705       96.78897
H         45.06089       71.66087       95.42531
N         48.27990       73.99909       94.35876
C         49.28111       72.94094       94.23695
C         48.85210       71.80032       93.31569
O         49.67194       70.92361       93.07973
C         50.63146       73.57043       93.76063
C         51.16812       74.56561       94.80303
C         50.54048       74.26337       92.38611
H         48.06111       74.51597       93.49878
H         49.48382       72.46999       95.22431
H         51.38242       72.75368       93.67757
H         50.47645       75.42557       94.93219
H         51.29664       74.06022       95.78397
H         52.15852       74.95775       94.48748
H         49.86920       75.14693       92.41166
H         51.54474       74.62578       92.07867
H         50.17867       73.55637       91.61133
N         47.59170       71.70727       92.79804
C         47.16315       70.61201       91.92584
C         46.58654       71.09772       90.59714
O         46.32579       70.24714       89.75583
C         46.07785       69.77217       92.63951
C         46.56368       69.12312       93.91196
N         47.55506       68.20331       93.88788
O         46.03573       69.40862       94.97535
H         46.89717       72.40751       93.07135
H         48.02488       69.95436       91.68051
H         45.71803       68.96099       91.96963
H         45.21191       70.43378       92.86782
H         48.00035       67.92881       93.00100
H         47.86749       67.75188       94.76063
N         46.26808       72.40592       90.35789
C         45.52800       72.83394       89.17101
C         46.09632       74.10503       88.57371
O         46.53031       74.95629       89.33399
C         44.07617       73.14931       89.58823
C         43.35654       71.94846       90.14605
C         42.92492       71.94006       91.48083
C         43.09562       70.83298       89.33414
C         42.25776       70.83075       92.00279
C         42.41796       69.72640       89.85389
C         41.99996       69.71914       91.18915
O         41.34932       68.64444       91.67718
H         46.42258       73.11030       91.09136
H         45.50052       72.03960       88.39334
H         43.49418       73.51138       88.71459
H         44.10084       73.96642       90.34528
H         43.10458       72.79114       92.11858
H         43.40858       70.82394       88.29766
H         41.93924       70.83973       93.03755
H         42.21616       68.87502       89.21678
H         41.04235       68.60355       92.59419
N         45.87463       74.38285       87.24900
C         46.07771       75.67248       86.57729
C         47.52341       76.01864       86.24552
O         47.79188       76.32404       85.09096
C         45.40998       76.85195       87.32669
C         43.91036       76.62411       87.56581
C         43.27946       77.81473       88.22784
O         43.27548       78.90004       87.66877
O         42.70012       77.68689       89.43696
H         45.39594       73.65834       86.69152
H         45.55422       75.61171       85.59448
H         45.53233       77.76613       86.70360
H         45.91453       77.04830       88.29566
H         43.77046       75.74128       88.21861
H         43.39458       76.43598       86.59983
N         48.48593       76.08665       87.20365
C         49.80731       76.66595       86.98455
C         50.66805       75.92618       85.96790
O         51.73912       76.43248       85.65826
C         50.58340       76.76783       88.32320
C         49.85002       77.48681       89.47558
C         49.46938       78.89678       89.14880
O         50.04500       79.90377       89.82327
O         48.61828       79.13849       88.30741
H         48.24245       75.80358       88.14893
H         49.65498       77.69304       86.58844
H         51.54104       77.30426       88.14087
H         50.82572       75.74194       88.67747
H         50.53984       77.49572       90.34376
H         48.94278       76.94360       89.80628
N         50.29737       74.74411       85.40085
C         51.13280       74.08227       84.42149
H         52.12037       73.83762       84.86772
H         50.65016       73.14236       84.08142
H         51.28101       74.74439       83.54093
H         49.41132       74.28999       85.65981
Ca        49.58982       82.55379       89.61087
O         48.93742       84.25720       92.11138
H         48.90065       85.24124       92.01527
H         48.46107       84.07434       92.95835
O         48.14152       85.15657       89.06682
H         47.76975       84.75555       88.24177
H         47.41446       85.06875       89.73204
O         48.65209       82.40484       86.95085
H         48.28759       82.28730       86.03960
H         49.10117       81.54572       87.15233

Ca 1.0



