%chk=apoCaM-CA-Ng.loop2.water3.frame1221.chk
%nprocshared=20
%mem=10GB
%nosave
#b3lyp/svp scf=(tight,noincore,xqc) Test 
#IOP(5/87=12) Density=Current Pop=(MK,readradii) iop(6/33=2) iop(6/42=6)

apoCaM-CA-Ng.loop2.water3.frame1221 

   -2  1 
C         20.04399      -17.28141      115.29651
C         19.94689      -17.46796      113.80864
O         18.84470      -17.39179      113.28563
H         19.03976      -17.08875      115.73066
H         20.45858      -18.19738      115.76611
H         20.69426      -16.41065      115.52463
N         21.03509      -17.70496      113.02267
C         22.41124      -17.81110      113.50687
C         23.00954      -19.17060      113.14585
O         22.34140      -19.98493      112.52390
C         23.24882      -16.63531      112.94093
C         23.41858      -16.66375      111.44835
O         22.94470      -17.56856      110.78198
O         24.14787      -15.72659      110.82221
H         20.86797      -17.80220      112.00966
H         22.44989      -17.72083      114.61067
H         24.26301      -16.64928      113.39277
H         22.76830      -15.67654      113.23058
N         24.28860      -19.46792      113.51022
C         24.97377      -20.72523      113.23148
C         25.15031      -20.98708      111.73731
O         24.82832      -22.07063      111.26947
C         24.30715      -21.89176      113.97644
H         24.82527      -18.75951      114.03240
H         26.00255      -20.63528      113.64803
H         24.90057      -22.82112      113.83799
H         24.26668      -21.66805      115.06380
H         23.27651      -22.07370      113.60975
N         25.75480      -20.04734      110.95461
C         26.20171      -20.27834      109.56934
C         27.04713      -19.10286      109.07223
O         27.11850      -18.07993      109.74348
C         25.04079      -20.61856      108.58835
C         24.12664      -19.45707      108.34534
O         22.97625      -19.48176      108.75210
O         24.57876      -18.38025      107.67430
H         25.99414      -19.16226      111.42521
H         26.87842      -21.16016      109.60422
H         24.45743      -21.47303      108.98458
H         25.44535      -20.94342      107.60629
N         27.76548      -19.18863      107.91729
C         28.65175      -18.11025      107.50187
C         27.90218      -16.85710      107.11655
O         26.69430      -16.90070      106.94529
H         27.74237      -20.05808      107.36342
H         29.26457      -18.42285      106.62985
H         29.34314      -17.88791      108.34353
N         28.57997      -15.68782      106.95214
C         27.93752      -14.44736      106.52895
C         28.50607      -13.94785      105.20987
O         27.96212      -12.98954      104.67653
C         28.10453      -13.36709      107.61639
C         27.47937      -13.78191      108.92548
N         28.23043      -13.90473      110.04514
O         26.27858      -14.00004      108.97724
H         29.59264      -15.67839      107.14779
H         26.85231      -14.61459      106.35957
H         27.61945      -12.42123      107.28977
H         29.18897      -13.16341      107.75772
H         29.24434      -13.72228      110.02670
H         27.79610      -14.18398      110.93746
N         29.60728      -14.51132      104.62905
C         30.17078      -14.01761      103.38887
C         29.35217      -14.42845      102.18134
O         28.37092      -15.14099      102.33984
H         30.11620      -15.27556      105.09088
H         31.17873      -14.46580      103.25273
H         30.28300      -12.91400      103.46196
N         29.69504      -14.05404      100.91374
C         30.80375      -13.15689      100.59147
C         30.30465      -11.85311       99.97629
O         31.11034      -10.94360       99.83561
C         31.82975      -13.85971       99.67838
C         32.42042      -15.10347      100.35419
O         31.21669      -14.22308       98.46773
H         29.12195      -14.41745      100.13586
H         31.34052      -12.85497      101.51135
H         32.66193      -13.14091       99.48637
H         31.92882      -14.23955       97.77620
H         32.91599      -14.82407      101.30861
H         31.62932      -15.85387      100.56676
H         33.17808      -15.57099       99.69083
N         29.00016      -11.67703       99.60090
C         28.44985      -10.41037       99.12281
C         27.24369      -10.01870       99.98935
O         26.61466      -10.90747      100.54696
C         28.10134      -10.47522       97.60416
C         27.16863      -11.66743       97.26251
C         29.40609      -10.52338       96.78416
C         26.69556      -11.68096       95.80703
H         28.34350      -12.46411       99.66475
H         29.21762       -9.62234       99.25615
H         27.58292       -9.53028       97.33149
H         26.26302      -11.61522       97.90234
H         27.68724      -12.62970       97.46463
H         30.04465       -9.64890       97.03549
H         29.97719      -11.45232       96.99389
H         29.20575      -10.45998       95.69627
H         26.01291      -12.54284       95.65142
H         26.14676      -10.74501       95.57219
H         27.54223      -11.80032       95.10131
N         26.89349       -8.72053      100.25301
C         27.57819       -7.55219       99.71548
C         26.58745       -6.46194       99.29666
O         25.41544       -6.51436       99.64324
C         28.58854       -7.05892      100.77663
C         29.49858       -5.96587      100.29482
O         29.51104       -4.77330      100.91941
O         30.24924       -6.16181       99.35169
H         26.14890       -8.56209      100.95076
H         28.13336       -7.83854       98.80248
H         29.23907       -7.91063      101.07575
H         28.03572       -6.72149      101.67998
N         27.02419       -5.44826       98.50163
C         26.22875       -4.31368       98.02946
C         25.00544       -4.75585       97.21992
O         25.16928       -5.63483       96.38395
C         27.13690       -3.48291       97.07730
C         26.46779       -2.26958       96.48020
C         25.97443       -2.31735       95.16434
C         26.32982       -1.08562       97.22321
C         25.33663       -1.20631       94.60871
C         25.69663        0.02768       96.66006
C         25.19781       -0.03404       95.35538
H         28.00696       -5.49641       98.19520
H         25.93796       -3.69040       98.89845
H         27.44475       -4.16141       96.24960
H         28.07540       -3.16541       97.58234
H         26.06639       -3.22150       94.57499
H         26.70741       -1.02872       98.23659
H         24.94677       -1.25711       93.60035
H         25.58829        0.93709       97.23616
H         24.70190        0.82494       94.92293
N         23.80770       -4.07490       97.24830
C         23.49609       -2.93680       98.09738
C         23.08244       -3.37086       99.49971
O         23.79383       -3.03608      100.43701
C         22.46605       -2.15436       97.26813
C         21.71434       -3.22719       96.49355
C         22.80867       -4.25877       96.20629
H         24.35737       -2.26266       98.21682
H         21.85546       -1.40637       97.81638
H         23.04413       -1.60483       96.49120
H         20.93765       -3.66630       97.12969
H         21.17794       -2.87016       95.58865
H         22.39923       -5.29116       96.16155
H         23.29496       -4.00630       95.23833
N         21.95741       -4.10167       99.73255
C         21.55478       -4.60179      101.03438
C         20.29283       -3.87066      101.47956
O         19.29234       -3.95729      100.78143
C         21.31104       -6.11566      100.88086
C         20.90131       -6.82016      102.17493
C         20.68153       -8.28314      101.90893
O         19.81874       -8.64330      101.12267
O         21.43998       -9.20498      102.53088
H         21.33872       -4.34604       98.96157
H         22.36961       -4.45534      101.76997
H         22.24719       -6.58317      100.50174
H         20.51542       -6.27365      100.11678
H         19.96016       -6.38487      102.57380
H         21.70498       -6.69204      102.93092
N         20.23385       -3.11452      102.61479
C         21.35041       -2.91362      103.51358
H         22.18969       -2.42314      102.97563
H         21.04584       -2.25412      104.35420
H         21.68264       -3.88535      103.93600
H         19.34481       -2.64605      102.85057
Ca        24.42697      -16.40374      108.71225
O         22.67109      -13.82440      109.22325
H         22.80123      -12.87535      109.47233
H         21.69369      -13.92072      109.10058
O         21.80172      -16.31417      107.11332
H         21.71899      -17.28764      106.95315
H         21.05224      -16.09785      107.72295
O         24.24577      -13.89684      106.55855
H         24.67349      -13.28460      105.90849
H         23.30061      -13.94737      106.26877

Ca 1.0



