%chk=apoCaM-CA-Ng.loop2.water5.frame89.chk
%nprocshared=20
%mem=10GB
%nosave
#b3lyp/svp scf=(tight,noincore,xqc) Test 
#IOP(5/87=12) Density=Current Pop=(MK,readradii) iop(6/33=2) iop(6/42=6)

apoCaM-CA-Ng.loop2.water5.frame89 

   -2  1 
C         64.06728       44.63982      112.50208
C         65.52210       44.29681      112.36849
O         66.13900       44.69854      111.39195
H         63.46635       43.71316      112.57851
H         63.91235       45.24573      113.41906
H         63.71382       45.22456      111.62488
N         66.13660       43.54391      113.32618
C         67.55748       43.20534      113.30213
C         67.79326       41.69795      113.14529
O         68.94479       41.28818      113.10883
C         68.20330       43.75866      114.58565
C         69.70351       43.67078      114.55701
O         70.33663       44.26443      113.69775
O         70.35674       42.94617      115.48429
H         65.57138       43.20760      114.12200
H         68.04516       43.69956      112.43226
H         67.79968       43.20845      115.46381
H         67.93591       44.83242      114.69710
N         66.75685       40.82465      112.96694
C         66.89732       39.40389      112.65153
C         67.82241       39.20625      111.46348
O         68.76245       38.42463      111.52420
C         67.30677       38.59817      113.88514
H         65.79977       41.18896      112.97341
H         65.89450       39.02941      112.34649
H         66.54826       38.74387      114.68363
H         67.33735       37.51575      113.63350
H         68.29978       38.91517      114.26331
N         67.61836       39.96009      110.35131
C         68.44534       39.95426      109.16371
C         69.89537       40.25480      109.53630
O         70.79476       39.49868      109.19195
C         68.26977       38.66275      108.34703
C         66.83435       38.21578      108.11951
O         66.55021       37.06491      108.40204
O         65.85823       38.97192      107.55916
H         66.85524       40.64373      110.36029
H         68.08813       40.78000      108.50927
H         68.79429       37.82734      108.86223
H         68.76559       38.80824      107.36193
N         70.17620       41.38959      110.23738
C         71.51990       41.85096      110.55004
C         71.88332       43.03901      109.68025
O         72.98948       43.54511      109.80395
H         69.39528       42.01321      110.49204
H         72.27612       41.06110      110.34808
H         71.57858       42.11018      111.62912
N         71.02566       43.48234      108.71510
C         71.37672       44.46752      107.70401
C         71.55497       45.85369      108.27922
O         71.19509       46.09846      109.42326
C         70.25956       44.49754      106.63317
C         70.09468       43.12836      106.00934
N         68.97990       42.39499      106.23268
O         70.99397       42.66404      105.32640
H         70.10676       43.03374      108.61964
H         72.32998       44.14747      107.22850
H         70.47025       45.23673      105.83214
H         69.31168       44.80464      107.13371
H         68.23276       42.75202      106.83614
H         68.87678       41.45064      105.83484
N         72.10601       46.82270      107.49584
C         72.21867       48.21634      107.88660
C         71.52267       49.09126      106.87080
O         71.04425       48.59206      105.85984
H         72.44983       46.56134      106.55891
H         73.28785       48.50804      107.94970
H         71.75114       48.38745      108.88120
N         71.39012       50.42667      107.09974
C         70.66309       51.31620      106.18858
C         69.16873       50.95164      106.05900
O         68.48214       51.58281      105.26849
C         70.83291       52.80966      106.61024
C         70.26618       53.16147      107.99873
O         72.18229       53.19914      106.52212
H         71.81938       50.80490      107.95664
H         71.12145       51.21663      105.17965
H         70.27707       53.43171      105.87545
H         72.67946       52.78079      107.27178
H         70.38747       54.24928      108.18823
H         69.19087       52.93282      108.04825
H         70.78019       52.61204      108.81333
N         68.59804       49.97345      106.82264
C         67.17801       49.61472      106.84423
C         66.97983       48.11742      106.60614
O         67.95287       47.40493      106.39602
C         66.57935       50.03779      108.22650
C         67.51300       49.63864      109.40543
C         66.28562       51.54518      108.20635
C         66.86598       49.74796      110.77840
H         69.18518       49.47016      107.49413
H         66.61279       50.12431      106.03253
H         65.59870       49.54621      108.37382
H         68.42383       50.28006      109.40010
H         67.82709       48.57857      109.28550
H         65.83619       51.89022      109.15652
H         67.20099       52.12439      108.00827
H         65.56057       51.77208      107.39442
H         66.53454       50.78203      110.99333
H         66.00338       49.05236      110.83795
H         67.61205       49.45546      111.54828
N         65.71905       47.57519      106.65209
C         65.43740       46.15109      106.49571
C         64.38049       45.87811      105.40836
O         64.03381       44.72433      105.20495
C         64.97317       45.59163      107.86441
C         65.21570       44.10841      107.93914
O         64.23943       43.20314      108.07523
O         66.36395       43.70787      107.87755
H         64.91914       48.18827      106.86387
H         66.37807       45.62879      106.21313
H         63.91698       45.87546      108.06289
H         65.59593       46.02804      108.67664
N         63.83426       46.88638      104.66321
C         62.82077       46.69659      103.62227
C         61.46306       46.31674      104.21706
O         61.00599       47.06383      105.07224
C         62.60669       48.04249      102.88201
C         61.60034       47.92276      101.76209
C         61.93118       47.23938      100.58117
C         60.31923       48.48742      101.89445
C         60.99690       47.12756       99.54705
C         59.38377       48.36154      100.86385
C         59.72340       47.68546       99.68938
H         64.17665       47.84560      104.80831
H         63.19740       45.95676      102.88838
H         63.56210       48.43110      102.46841
H         62.25222       48.79143      103.62634
H         62.91418       46.80178      100.46007
H         60.03795       49.00949      102.80080
H         61.25997       46.60722       98.63556
H         58.39527       48.78802      100.97638
H         58.99964       47.59380       98.89012
N         60.68543       45.27845      103.75930
C         59.28659       45.12556      104.14521
C         59.05676       44.93778      105.62376
O         57.94382       45.16659      106.07782
C         58.80682       43.90719      103.35467
C         59.64460       44.02177      102.09799
C         61.01495       44.37870      102.67255
H         58.76664       46.05046      103.80507
H         59.13173       42.97517      103.87287
H         57.70700       43.86366      103.19781
H         59.63670       43.12495      101.44308
H         59.26829       44.89548      101.51675
H         61.50380       43.47740      103.09922
H         61.63371       44.82099      101.87026
N         60.05135       44.48739      106.43536
C         59.87494       44.35061      107.86926
C         59.87956       45.73724      108.48435
O         58.96450       46.08072      109.21880
C         60.97348       43.44422      108.45501
C         60.54572       42.86618      109.81317
C         61.49288       41.81690      110.30402
O         61.74537       40.83928      109.61595
O         62.00631       41.91227      111.54158
H         60.95602       44.21745      106.02057
H         58.91217       43.82091      108.05018
H         61.94383       43.97845      108.50854
H         61.08582       42.57452      107.76964
H         59.56345       42.36066      109.69141
H         60.44003       43.67246      110.56928
N         60.86294       46.61928      108.14068
C         60.88543       47.99294      108.59178
H         61.72334       48.53506      108.09953
H         59.93775       48.50124      108.31039
H         61.02596       48.03418      109.69041
H         61.60019       46.32149      107.48442
Ca        65.03601       41.07279      107.87502
O         65.79592       41.34292      105.16363
H         66.09583       42.07241      105.76123
H         66.60376       40.78714      105.03054
O         64.56725       41.38922      110.51127
H         64.31641       41.18755      111.44290
H         65.13662       42.19681      110.56377
O         62.51074       42.02097      105.09536
H         63.05126       42.40580      105.82888
H         63.13620       41.96388      104.32988
O         63.22840       38.24228      108.87963
H         63.87012       37.93024      109.56596
H         62.33735       38.04364      109.26256
O         62.85071       39.15965      105.93109
H         62.21604       39.30674      105.18544
H         63.37961       38.37014      105.65377

Ca 1.0



