%chk=apoCaM-CA-Ng.loop2.water4.frame192.chk
%nprocshared=20
%mem=10GB
%nosave
#b3lyp/svp scf=(tight,noincore,xqc) Test 
#IOP(5/87=12) Density=Current Pop=(MK,readradii) iop(6/33=2) iop(6/42=6)

apoCaM-CA-Ng.loop2.water4.frame192 

   -2  1 
C        111.97870       47.21025       12.84841
C        113.43531       46.99874       12.54800
O        114.06619       46.18108       13.20245
H        111.42518       46.25811       12.71246
H        111.85646       47.55512       13.89019
H        111.53131       47.97669       12.18083
N        114.03443       47.70062       11.54813
C        115.43093       47.52797       11.16705
C        116.36095       47.91889       12.30185
O        117.22055       47.12449       12.65559
C        115.73161       48.35897        9.90024
C        117.11045       48.09530        9.35118
O        117.24169       47.61081        8.23824
O        118.20615       48.40296       10.07102
H        113.45895       48.37054       11.01376
H        115.59599       46.46037       10.89359
H        115.61474       49.44479       10.10502
H        114.98968       48.07511        9.12030
N        116.24700       49.13588       12.91168
C        117.16473       49.62552       13.93421
C        117.26955       48.66313       15.11029
O        116.26624       48.48607       15.78747
C        118.50637       49.99323       13.29191
H        115.47855       49.76019       12.62528
H        116.77112       50.58648       14.33724
H        118.33924       50.76749       12.51338
H        119.18334       50.42395       14.06195
H        118.99142       49.11877       12.81406
N        118.43217       47.99944       15.41154
C        118.57291       47.12958       16.57181
C        118.66070       45.67016       16.16432
O        119.54977       44.95662       16.61094
C        119.74829       47.59847       17.46708
C        121.12352       47.51839       16.84051
O        121.29142       47.08866       15.70973
O        122.19245       47.91762       17.55441
H        119.24854       48.09850       14.79768
H        117.66118       47.20059       17.19400
H        119.76034       46.98374       18.39352
H        119.56551       48.65352       17.76158
N        117.70060       45.13940       15.35707
C        117.58231       43.71461       15.10659
C        117.21992       43.04899       16.40744
O        117.91964       42.15570       16.86251
H        116.97573       45.75619       14.96138
H        118.51852       43.30778       14.66498
H        116.75002       43.53944       14.39098
N        116.14651       43.52344       17.09637
C        115.76827       43.06928       18.42342
C        115.26434       41.63993       18.38394
O        114.32857       41.33896       17.65676
C        114.71166       44.01342       19.03117
C        115.28775       45.39420       19.42491
N        116.31821       45.29283       20.44960
O        115.77749       46.13975       18.34976
H        115.61033       44.29621       16.67160
H        116.65447       43.11996       19.09249
H        114.32535       43.56207       19.97054
H        113.84883       44.13028       18.33851
H        115.88951       44.88617       21.31038
H        116.63313       46.26150       20.68664
N        115.86160       40.70554       19.17320
C        115.50785       39.29970       19.20899
C        114.09842       39.04369       19.69386
O        113.72835       39.53306       20.75171
H        116.63967       40.99961       19.78337
H        116.18980       38.79784       19.92976
H        115.68262       38.84116       18.21253
N        113.29475       38.18101       19.00752
C        111.99741       37.72671       19.51362
C        110.89256       38.77791       19.38678
O        109.81243       38.54690       19.91576
C        111.58705       36.37624       18.85268
C        111.32023       36.45425       17.33936
O        112.54887       35.38608       19.13082
H        113.68909       37.73850       18.16623
H        112.12525       37.49998       20.59625
H        110.63756       36.03716       19.32153
H        113.32093       35.51416       18.51990
H        111.03141       35.45323       16.95611
H        110.48465       37.13609       17.13960
H        112.20679       36.80199       16.77124
N        111.07000       39.92877       18.67764
C        110.05738       40.97198       18.51221
C        110.64104       42.33427       18.86923
O        111.79843       42.40674       19.26695
C        109.43663       40.97109       17.06970
C        110.37703       41.32156       15.88011
C        108.62878       39.69604       16.80646
C        111.43616       40.29097       15.47042
H        111.97613       40.07800       18.22751
H        109.20570       40.79665       19.20774
H        108.66257       41.76256       17.05584
H        110.87182       42.29781       16.06656
H        109.72355       41.45301       14.98962
H        108.09212       39.77103       15.83689
H        109.27878       38.81572       16.77741
H        107.87084       39.54771       17.60600
H        112.24638       40.18017       16.20308
H        110.97924       39.30207       15.26445
H        111.92825       40.64047       14.53912
N        109.90455       43.47064       18.70070
C        110.42591       44.81483       18.89703
C        109.53731       45.63443       19.83664
O        109.83862       46.79270       20.07705
C        110.56624       45.43437       17.49238
C        111.43262       46.65380       17.40945
O        111.78638       47.04470       16.31071
O        111.96471       47.22619       18.50052
H        108.94736       43.40066       18.32700
H        111.44588       44.76412       19.34066
H        109.57677       45.61221       17.02121
H        111.10557       44.67742       16.87703
N        108.44190       45.08145       20.44138
C        107.59888       45.79759       21.39090
C        106.86447       46.93925       20.70178
O        106.12783       46.65855       19.76954
C        106.60989       44.79697       22.03454
C        105.75834       45.40494       23.12202
C        106.01377       45.08968       24.46720
C        104.69441       46.27176       22.81223
C        105.23005       45.64235       25.48265
C        103.90877       46.81641       23.83041
C        104.17805       46.50462       25.16488
H        108.21606       44.09365       20.26962
H        108.25661       46.16007       22.20491
H        107.23530       43.98991       22.47769
H        105.95522       44.31590       21.27444
H        106.82565       44.42341       24.73191
H        104.45804       46.51804       21.78643
H        105.43889       45.39980       26.51608
H        103.08865       47.47776       23.58318
H        103.56937       46.92796       25.95241
N        106.96436       48.24553       21.11150
C        106.21674       49.34904       20.51535
C        106.47990       49.64525       19.04178
O        105.82428       50.54108       18.52790
C        106.63111       50.56245       21.35756
C        106.86662       49.93273       22.70957
C        107.63270       48.67189       22.32526
H        105.13587       49.12241       20.65960
H        107.62190       50.93635       21.00791
H        105.90625       51.40462       21.34195
H        107.38079       50.57598       23.45428
H        105.87317       49.63306       23.11927
H        108.69806       48.88856       22.09171
H        107.53437       47.96095       23.17255
N        107.40359       48.96394       18.29767
C        107.64418       49.23419       16.87967
C        107.24913       48.05326       16.00018
O        107.30352       48.19680       14.78600
C        109.12928       49.57353       16.65253
C        109.56822       50.83752       17.40030
C        111.03086       51.09309       17.18146
O        111.40278       52.11653       16.63029
O        111.94101       50.19431       17.60238
H        107.96798       48.22636       18.73884
H        107.02662       50.09272       16.53556
H        109.31451       49.73160       15.56631
H        109.74031       48.71152       16.98810
H        109.39504       50.72632       18.49151
H        108.97373       51.70158       17.03032
N        106.83040       46.86455       16.51766
C        106.40988       45.76031       15.68609
H        105.52450       46.05955       15.08597
H        107.23642       45.45135       15.01323
H        106.12678       44.89611       16.32537
H        106.80413       46.71763       17.52865
Ca       114.11461       47.63526       18.13856
O        113.95454       50.07248       20.21682
H        113.03381       50.42006       20.10951
H        113.98399       49.73041       21.14522
O        116.79875       49.51265       18.70277
H        117.39057       50.01003       18.08378
H        117.41539       48.97847       19.26332
O        114.85679       51.47402       17.47705
H        114.15959       51.95034       16.96103
H        114.93565       51.98774       18.31992
O        113.51576       49.54874       14.93593
H        113.56069       49.86315       13.99931
H        112.54786       49.54248       15.13918

Ca 1.0



