%chk=apoCaM-CA-Ng.loop4.water5.frame939.chk
%nprocshared=20
%mem=10GB
%nosave
#b3lyp/svp scf=(tight,noincore,xqc) Test 
#IOP(5/87=12) Density=Current Pop=(MK,readradii) iop(6/33=2) iop(6/42=6)

apoCaM-CA-Ng.loop4.water5.frame939 

   -3  1 
C        -17.87107      110.82603       74.55811
C        -18.82037      111.95354       74.27866
O        -19.89319      111.68901       73.76140
H        -16.93998      111.18614       75.04256
H        -18.36204      110.09794       75.23954
H        -17.60829      110.31251       73.61007
N        -18.50117      113.23902       74.61984
C        -19.37224      114.40436       74.43553
C        -20.62931      114.36884       75.29654
O        -21.41359      115.30317       75.20353
C        -19.73760      114.62005       72.95396
C        -18.51687      114.75153       72.10172
O        -18.32562      113.87823       71.10356
O        -17.71125      115.64861       72.29299
H        -17.57667      113.41418       75.04214
H        -18.80864      115.30573       74.76649
H        -20.33679      115.54931       72.84188
H        -20.35635      113.78101       72.57648
N        -20.88127      113.35957       76.17991
C        -22.04635      113.33918       77.06145
C        -21.87441      114.53513       78.00982
O        -20.87747      114.54114       78.71868
C        -22.11075      111.94865       77.79678
C        -22.21250      110.79136       76.75160
C        -23.28677      111.85376       78.78162
C        -22.16328      109.38575       77.35122
H        -20.19538      112.60323       76.27519
H        -22.96236      113.42348       76.44253
H        -21.17066      111.83056       78.37981
H        -21.37170      110.83544       76.03261
H        -23.15161      110.89666       76.16906
H        -24.25054      111.82980       78.23099
H        -23.23064      110.92264       79.37882
H        -23.26798      112.69420       79.50514
H        -22.18214      108.63863       76.52885
H        -21.22720      109.24874       77.93222
H        -23.04048      109.18682       77.99796
N        -22.69185      115.63812       78.03664
C        -23.96146      115.77845       77.32965
C        -24.42156      117.23474       77.28304
O        -24.48452      117.88567       78.31713
C        -25.01208      114.94094       78.06423
C        -26.34173      114.96628       77.39591
O        -27.41600      115.41610       78.07129
O        -26.45787      114.55585       76.25173
H        -22.38773      116.42684       78.62980
H        -23.85376      115.42902       76.28127
H        -25.10952      115.29866       79.11277
H        -24.69527      113.89979       78.08337
N        -24.80721      117.78545       76.09508
C        -25.25481      119.16039       75.93200
C        -26.67636      119.25412       75.40866
O        -27.02015      120.29870       74.87357
H        -24.78784      117.20079       75.24526
H        -24.58302      119.62187       75.17587
H        -25.16954      119.76327       76.86068
N        -27.57487      118.23515       75.55808
C        -28.92596      118.28626       74.98672
C        -29.88863      117.23885       75.54995
O        -31.07067      117.54077       75.64670
C        -28.87779      118.21518       73.44166
C        -28.20744      116.96710       72.92418
O        -28.87497      116.12630       72.11181
O        -27.04219      116.73123       73.20236
H        -27.27867      117.42332       76.10951
H        -29.37707      119.26339       75.27322
H        -28.31954      119.08741       73.04443
H        -29.91191      118.27609       73.03943
N        -29.47810      116.00651       75.95831
C        -30.37072      115.01740       76.53790
C        -31.21719      114.30991       75.50775
O        -31.98069      113.44130       75.90098
H        -28.49507      115.75013       75.87771
H        -30.99418      115.48588       77.33140
H        -29.75833      114.22496       77.02120
N        -31.10342      114.58083       74.17224
C        -31.83019      113.88817       73.11566
C        -31.41483      112.42568       72.96865
O        -32.00298      111.75284       72.13178
C        -33.36225      114.03974       73.29066
C        -33.82253      115.50409       73.41691
C        -33.44525      116.33570       72.21599
N        -32.66985      117.43672       72.35409
O        -33.84881      116.01518       71.10807
H        -30.46179      115.31652       73.85953
H        -31.56571      114.36809       72.14726
H        -33.70877      113.48937       74.18928
H        -33.87177      113.58173       72.41477
H        -33.39293      115.94642       74.34166
H        -34.92819      115.51992       73.52276
H        -32.32732      117.72968       73.27987
H        -32.41389      118.00424       71.53266
N        -30.39685      111.86758       73.69643
C        -29.99677      110.46693       73.57110
C        -28.56326      110.30253       73.06968
O        -28.16060      109.16391       72.88262
C        -30.16851      109.72571       74.93421
C        -29.22592      110.25616       76.03411
C        -31.62238      109.78716       75.42166
H        -29.87560      112.44658       74.36720
H        -30.64394      109.95181       72.82776
H        -29.91979      108.65253       74.77584
H        -28.16417      110.16343       75.72252
H        -29.43485      111.31769       76.27923
H        -29.35165      109.65920       76.96264
H        -32.30300      109.35796       74.65706
H        -31.73714      109.20066       76.35853
H        -31.92878      110.83308       75.62719
N        -27.71952      111.36462       72.88238
C        -26.30404      111.19712       72.56411
C        -25.88489      112.00127       71.34228
O        -26.42911      113.06552       71.09053
C        -25.48954      111.67026       73.78365
C        -24.00433      111.51351       73.58388
N        -23.19632      112.59727       73.58942
O        -23.52774      110.40123       73.41134
H        -28.05106      112.32235       73.05814
H        -26.05752      110.12624       72.39144
H        -25.78472      111.08186       74.67922
H        -25.73272      112.73710       73.98205
H        -23.57587      113.54491       73.72641
H        -22.18610      112.49062       73.44317
N        -24.81642      111.57483       70.60680
C        -24.17544      112.36760       69.56127
C        -23.15085      111.51859       68.83456
O        -22.30867      110.91451       69.48554
C        -23.43984      113.58212       70.18084
C        -22.71178      114.39665       69.12959
C        -23.42754      115.07838       68.13151
C        -21.30685      114.46912       69.13269
C        -22.75105      115.81936       67.15656
C        -20.63227      115.20653       68.15458
C        -21.34997      115.88470       67.16478
O        -20.68504      116.59400       66.23017
H        -24.40984      110.65671       70.84216
H        -24.93931      112.71739       68.83400
H        -22.70784      113.19864       70.92567
H        -24.14652      114.24459       70.72249
H        -24.50892      115.03791       68.10933
H        -20.73153      113.94688       69.88515
H        -23.31667      116.34139       66.39509
H        -19.55027      115.25059       68.16508
H        -21.14313      117.08140       65.53046
N        -23.12477      111.49466       67.47142
C        -22.13662      110.74202       66.71801
C        -21.18720      111.72720       66.04486
O        -21.61782      112.38277       65.10645
C        -22.86887      109.85325       65.68688
C        -21.93011      108.98577       64.83862
C        -22.71337      108.20931       63.81774
O        -23.65892      107.33415       64.21040
O        -22.49789      108.36913       62.62665
H        -23.79624      112.07682       66.94802
H        -21.58699      110.07807       67.40274
H        -23.45966      110.50880       65.00767
H        -23.58162      109.19150       66.22672
H        -21.38332      108.27331       65.49022
H        -21.19257      109.63117       64.31334
N        -19.90318      111.96245       66.46308
C        -19.28142      111.40939       67.66970
C        -19.12837      109.90017       67.63661
O        -19.26106      109.29495       66.58227
C        -17.91815      112.09964       67.94896
C        -16.84964      111.82294       66.87024
C        -15.54314      112.58337       66.99954
O        -15.27247      113.47196       67.98283
O        -14.69156      112.39890       66.14529
H        -19.38052      112.67710       65.93436
H        -19.95795      111.66407       68.51493
H        -17.52958      111.76247       68.93486
H        -18.11807      113.19056       67.98807
H        -17.25915      112.08611       65.87512
H        -16.61796      110.73692       66.87178
N        -18.90318      109.22040       68.79474
C        -18.83944      107.77593       68.84183
H        -19.79347      107.34461       68.46721
H        -17.99610      107.40897       68.22148
H        -18.69275      107.43670       69.88980
H        -18.81649      109.74118       69.68125
Ca       -16.55623      113.99358       69.74729
O        -14.59984      115.04579       73.12612
H        -14.08536      114.36887       73.63325
H        -15.18072      115.47495       73.80351
O        -15.32907      112.10458       71.75952
H        -14.80949      112.04802       72.60015
H        -14.64585      112.08415       71.04276
O        -13.00702      114.55917       70.00188
H        -12.12221      114.32864       70.38178
H        -12.81340      114.83337       69.07023
O        -14.48848      117.23571       70.82489
H        -14.81034      117.57365       71.69817
H        -13.57942      117.61670       70.73058
O        -16.95965      116.92623       68.91718
H        -17.45427      117.72550       68.60666
H        -16.47626      116.60465       68.11489

Ca 1.0



