%chk=apoCaM-CA-Ng.loop2.water5.frame1243.chk
%nprocshared=20
%mem=10GB
%nosave
#b3lyp/svp scf=(tight,noincore,xqc) Test 
#IOP(5/87=12) Density=Current Pop=(MK,readradii) iop(6/33=2) iop(6/42=6)

apoCaM-CA-Ng.loop2.water5.frame1243 

   -2  1 
C         46.48427       20.72264       18.14596
C         47.87517       20.45036       17.64544
O         48.37763       21.24518       16.86456
H         45.80080       19.89924       17.85631
H         46.50069       20.82819       19.25124
H         46.09574       21.67024       17.71578
N         48.60734       19.37746       18.05806
C         48.14391       18.36519       19.00527
C         48.52120       16.96236       18.51031
O         49.09459       16.83858       17.43621
C         48.60604       18.74011       20.43975
C         50.08986       18.81912       20.60133
O         50.75519       19.55164       19.88656
O         50.71172       18.02717       21.48669
H         49.57830       19.30698       17.71362
H         47.03580       18.37028       19.05853
H         48.19676       18.00814       21.16765
H         48.18523       19.73531       20.69565
N         48.16262       15.85207       19.22055
C         48.28629       14.46708       18.75213
C         49.70208       13.93929       18.50965
O         49.79416       12.76846       18.16436
C         47.42202       14.25565       17.49806
H         47.68624       15.98850       20.12438
H         47.85211       13.81514       19.54394
H         46.37472       14.56244       17.70369
H         47.80574       14.83686       16.63512
H         47.40958       13.18151       17.21139
N         50.83887       14.67973       18.68193
C         52.18119       14.11797       18.48016
C         52.95116       14.00942       19.78413
O         52.45516       14.42007       20.82306
C         52.95111       14.82180       17.32446
C         53.15126       16.32332       17.27471
O         53.67275       16.79186       16.27570
O         52.67134       17.18198       18.18778
H         50.75509       15.65169       18.99392
H         52.10026       13.05962       18.15099
H         52.38173       14.58286       16.39984
H         53.95019       14.35099       17.21927
N         54.14921       13.35768       19.80936
C         54.92967       13.16020       21.01919
C         56.32552       13.70312       20.83442
O         56.72048       14.61027       21.55118
H         54.51078       12.94860       18.93530
H         54.99484       12.07157       21.23783
H         54.44780       13.64231       21.89659
N         57.15088       13.14739       19.90651
C         58.53561       13.56425       19.70457
C         58.66460       14.96484       19.11571
O         58.08250       15.25290       18.07919
C         59.27022       12.57119       18.77880
C         59.47204       11.23091       19.44425
N         60.22875       11.12822       20.56490
O         58.97076       10.22891       18.95785
H         56.79206       12.34593       19.36283
H         59.06206       13.54272       20.68211
H         60.28243       12.96207       18.53707
H         58.70601       12.46215       17.82553
H         60.67917       11.95817       20.97874
H         60.38107       10.21479       21.01669
N         59.54559       15.83801       19.68745
C         59.93120       17.13060       19.13721
C         58.84490       18.16884       19.28314
O         58.34775       18.31664       20.38994
H         60.05922       15.52967       20.52622
H         60.29938       16.99731       18.10140
H         60.78904       17.50606       19.73302
N         58.41065       18.96156       18.26062
C         58.95527       18.96624       16.90687
C         60.34345       19.61652       16.86394
O         61.25212       18.95799       16.37758
C         57.94634       19.58534       15.90449
C         56.66290       18.72620       15.85690
O         57.63646       20.90914       16.25299
H         57.63795       19.61353       18.47027
H         59.05231       17.91866       16.54473
H         58.41060       19.56619       14.89100
H         57.06129       21.26711       15.52565
H         56.90932       17.67882       15.57378
H         56.15171       18.70749       16.84190
H         55.95108       19.12134       15.10323
N         60.59627       20.87920       17.34877
C         61.93607       21.50239       17.29877
C         62.48811       21.79101       18.70222
O         61.70482       21.77688       19.64102
C         61.92934       22.78476       16.40932
C         61.03917       23.91076       16.99913
C         61.51968       22.40620       14.97540
C         61.10946       25.21689       16.20356
H         59.81926       21.40770       17.77150
H         62.63312       20.78066       16.83661
H         62.96134       23.18717       16.35838
H         61.38995       24.14308       18.02800
H         59.97914       23.58714       17.05657
H         61.61578       23.26792       14.28603
H         62.19094       21.60934       14.58955
H         60.47276       22.03671       14.94739
H         62.16004       25.57070       16.13124
H         60.69312       25.09128       15.18403
H         60.50775       25.99592       16.71721
N         63.82062       22.00577       18.97462
C         64.91894       21.92089       18.01183
C         65.85374       23.12613       18.11684
O         66.50865       23.26548       19.14329
C         65.75270       20.64930       18.30916
C         64.92853       19.39109       18.31378
O         64.35823       19.01782       17.30239
O         64.83141       18.65838       19.44052
H         64.08629       22.14257       19.96356
H         64.54467       21.83080       16.97755
H         66.22248       20.74403       19.31346
H         66.56649       20.54424       17.55823
N         66.02487       24.00522       17.08311
C         67.13878       24.95943       17.05593
C         66.91722       26.07008       16.02727
O         66.64436       25.74180       14.87789
C         68.41695       24.17476       16.65965
C         69.66057       25.03200       16.55719
C         70.27414       25.23812       15.30753
C         70.22704       25.62079       17.70012
C         71.42416       26.02617       15.20402
C         71.37970       26.40747       17.59244
C         71.97675       26.61077       16.34542
H         65.44645       23.89204       16.23626
H         67.27267       25.39942       18.06380
H         68.21886       23.69644       15.67425
H         68.61405       23.35488       17.38269
H         69.86037       24.79498       14.41032
H         69.77819       25.46904       18.67350
H         71.88728       26.18291       14.23801
H         71.81208       26.85907       18.47586
H         72.86861       27.21902       16.26301
N         67.09869       27.40183       16.31243
C         67.53756       27.95317       17.58881
C         66.38207       28.21207       18.54248
O         66.64666       28.69352       19.63729
C         68.21867       29.25957       17.16884
C         67.30419       29.73407       16.05712
C         67.05755       28.43434       15.29172
H         68.29629       27.32994       18.09287
H         68.40197       29.98663       17.98939
H         69.20117       29.00838       16.70407
H         66.35072       30.06187       16.52909
H         67.69503       30.56760       15.43566
H         66.08853       28.47796       14.74936
H         67.88730       28.24057       14.57575
N         65.08653       27.94303       18.20673
C         63.95636       28.19464       19.09560
C         63.01984       29.22356       18.46892
O         63.22355       29.57337       17.31356
C         63.21582       26.85474       19.33691
C         64.10179       25.77290       19.98439
C         64.52046       26.06177       21.40358
O         65.29905       25.17399       22.04982
O         64.15415       27.06946       21.98734
H         64.87241       27.54772       17.27865
H         64.31737       28.62429       20.05139
H         62.88149       26.47129       18.34871
H         62.30553       26.98109       19.95524
H         65.00958       25.62259       19.36530
H         63.53439       24.81825       19.99347
N         61.97091       29.79069       19.13579
C         61.63199       29.57212       20.52905
H         60.60890       29.14820       20.59826
H         62.33318       28.90269       21.05685
H         61.65178       30.54563       21.06219
H         61.37624       30.46067       18.62365
Ca        52.29779       16.99226       20.37211
O         55.10199       16.89930       22.52967
H         55.29704       17.01879       23.49282
H         54.62263       16.03502       22.47951
O         52.33726       17.32030       23.83144
H         51.51381       16.78947       23.68762
H         52.01830       18.25170       23.93799
O         54.28547       19.81754       22.57273
H         53.85400       20.08396       23.42294
H         55.24544       19.72862       22.79885
O         55.48976       16.89575       19.50322
H         55.59508       16.24718       18.76317
H         55.86286       17.74028       19.14761
O         53.87349       20.28936       19.52298
H         54.57995       20.94032       19.76350
H         54.11653       19.98334       18.61329

Ca 1.0



