%chk=apoCaM-CA-Ng.loop3.water2.frame980.chk
%nprocshared=20
%mem=10GB
%nosave
#b3lyp/svp scf=(tight,noincore,xqc) Test 
#IOP(5/87=12) Density=Current Pop=(MK,readradii) iop(6/33=2) iop(6/42=6)

apoCaM-CA-Ng.loop3.water2.frame980 

   0  1 
C         53.10464      122.34237       78.30607
C         53.55160      123.47884       79.17444
O         52.74250      124.33686       79.49982
H         52.15766      122.59421       77.78573
H         53.88710      122.09529       77.56125
H         52.92681      121.44927       78.94630
N         54.82469      123.50202       79.65584
C         55.24669      124.43316       80.68675
C         55.53056      125.84505       80.15966
O         56.31828      126.01345       79.24292
C         56.45236      123.86028       81.46009
C         56.67483      124.50856       82.80310
O         57.42689      123.87451       83.71764
O         56.11141      125.54165       83.11398
H         55.46936      122.74493       79.37987
H         54.43261      124.43330       81.43592
H         57.38029      123.88569       80.85868
H         56.23181      122.79446       81.67624
N         54.93192      126.90235       80.77169
C         55.14652      128.34729       80.53840
C         56.51272      128.87617       80.90647
O         56.92012      129.87703       80.33327
C         54.13297      129.18450       81.34775
C         54.06944      128.83469       82.86904
C         52.64401      129.02994       83.40709
C         52.21595      130.48597       83.47688
N         53.01266      131.23438       84.45694
H         54.25611      126.61606       81.47339
H         54.98372      128.57590       79.46505
H         53.15079      129.00512       80.86731
H         54.33838      130.27443       81.22648
H         54.87592      129.33020       83.44520
H         54.25673      127.77638       83.07225
H         52.51834      128.56984       84.41038
H         51.96488      128.49164       82.70771
H         51.13493      130.52388       83.74305
H         52.33739      130.92246       82.46599
H         52.87721      130.88130       85.43448
H         54.02268      131.16885       84.21337
H         52.74680      132.24252       84.42377
N         57.20724      128.34449       81.93892
C         58.50068      128.81810       82.41403
C         59.60880      127.80409       82.17937
O         60.77209      128.15890       82.32224
C         58.39496      129.13345       83.92219
C         57.79096      128.02569       84.75611
O         56.62055      128.08569       85.07305
O         58.54821      127.10051       85.34391
H         56.77538      127.56681       82.42679
H         58.77776      129.73816       81.84908
H         57.69382      129.98008       84.01463
H         59.37509      129.43859       84.34873
N         59.32367      126.52366       81.81597
C         60.32270      125.49163       81.58729
C         60.98589      124.92657       82.85281
O         61.84208      124.06605       82.71577
H         58.34620      126.26345       81.66114
H         61.06951      125.88459       80.86952
H         59.81094      124.63610       81.09715
N         60.62757      125.34036       84.10236
C         61.16368      124.83642       85.37238
C         60.08339      124.33637       86.37005
O         58.70598      124.47890       86.21076
C         61.90349      125.93674       86.14785
C         63.00035      126.61739       85.38253
N         62.81866      127.87128       84.91034
O         64.06770      126.04829       85.21051
H         59.95344      126.07812       84.12562
H         61.86009      123.99528       85.18083
H         62.36140      125.46788       87.04109
H         61.16666      126.69427       86.50758
H         61.92195      128.35758       85.05754
H         63.56202      128.34754       84.37939
N         60.52575      123.39745       87.41443
C         59.68310      123.05797       88.57869
C         58.65476      122.01413       88.19400
O         58.99126      121.07194       87.48837
H         61.55833      123.31610       87.54638
H         59.18361      123.94170       89.03148
H         60.35361      122.65232       89.37249
N         57.36590      122.13474       88.63095
C         56.25277      121.30889       88.16315
C         55.80848      121.75901       86.73112
O         56.13454      123.08257       86.42410
C         55.09827      121.23824       89.22430
C         55.50021      120.56363       90.51168
C         55.28096      121.20987       91.73892
C         56.05601      119.26211       90.50384
C         55.67135      120.59989       92.92561
C         56.44633      118.65636       91.69965
C         56.28274      119.34111       92.90499
O         56.73783      118.80141       94.04546
H         57.15231      122.89196       89.29512
H         56.58828      120.26727       88.01604
H         54.28435      120.58703       88.86803
H         54.66611      122.24854       89.40728
H         54.81175      122.18566       91.78979
H         56.20749      118.71394       89.58037
H         55.50990      121.11146       93.86599
H         56.89707      117.66819       91.69115
H         56.78034      119.34523       94.84403
N         54.39833      121.43088       86.44349
C         53.72261      121.78381       85.17699
C         53.35868      123.24724       85.16580
O         54.23675      124.08474       85.09127
C         54.38131      121.35429       83.82043
C         53.44982      121.69068       82.59658
C         54.77470      119.87334       83.81731
C         52.05980      121.03748       82.58883
H         54.14347      120.46007       86.73387
H         52.78624      121.20387       85.22376
H         55.31078      121.94180       83.68122
H         53.92811      121.40782       81.63693
H         53.31370      122.78866       82.55511
H         55.57616      119.70830       84.56806
H         53.90794      119.22525       84.05358
H         55.16997      119.56912       82.82346
H         52.13426      119.96356       82.32060
H         51.53160      121.15535       83.54947
H         51.41846      121.53257       81.82927
N         52.04816      123.60551       85.18470
C         51.55047      124.95672       84.89885
C         50.20750      125.28151       85.53546
O         49.77952      126.42832       85.44831
C         51.47155      125.16139       83.36819
O         52.70406      125.47709       82.78910
H         51.39884      122.81535       85.21776
H         52.21380      125.69470       85.34603
H         50.80231      126.00093       83.09986
H         51.04991      124.25362       82.88988
H         53.44766      125.21302       83.37244
N         49.48899      124.34119       86.19728
C         48.22444      124.59594       86.84766
C         48.43118      125.49084       88.06556
O         49.56448      125.59854       88.51859
C         47.61725      123.23813       87.21983
H         49.83074      123.38624       86.24701
H         47.55632      125.07388       86.11688
H         47.43851      122.64326       86.29284
H         48.31259      122.64719       87.86027
H         46.65937      123.37393       87.72935
N         47.42763      126.18154       88.68449
C         46.02766      126.25721       88.26481
C         45.13655      126.65624       89.44606
O         45.56723      127.45809       90.26625
C         45.86424      127.23058       87.09319
H         47.71368      126.75492       89.49253
H         45.68319      125.29150       87.88587
H         46.21896      128.24791       87.35229
H         46.43480      126.87581       86.21401
H         44.79698      127.28534       86.79322
N         43.86915      126.17312       89.62760
C         43.19214      125.21335       88.74602
C         43.84111      123.84789       88.86420
O         43.93706      123.13552       87.87403
C         41.64195      125.13022       88.92893
C         41.12022      124.53725       90.24132
C         41.54124      125.34263       91.43030
O         41.22284      126.51914       91.52213
O         42.33074      124.79099       92.36937
H         43.38623      126.54091       90.45081
H         43.31406      125.59219       87.70990
H         41.23743      124.50824       88.09736
H         41.16582      126.12644       88.81584
H         41.45373      123.48170       90.34332
H         40.01057      124.54780       90.19538
N         44.36468      123.45813       90.06003
C         45.17019      122.27346       90.25322
H         46.12882      122.58631       90.72085
H         44.66136      121.56290       90.93660
H         45.40549      121.76695       89.29620
H         44.22762      124.06153       90.88088
Ca        56.59892      125.25435       85.92405
O         55.08343      124.98331       88.23010
H         55.52676      124.70165       89.06746
H         54.13734      124.71712       88.33818
O         54.21786      126.85570       86.06396
H         54.46642      127.80810       86.02464
H         53.40799      126.86125       86.62857

Ca 1.0



