%chk=apoCaM-CA-Ng.loop1.water3.frame1377.chk
%nprocshared=20
%mem=10GB
%nosave
#b3lyp/svp scf=(tight,noincore,xqc) Test 
#IOP(5/87=12) Density=Current Pop=(MK,readradii) iop(6/33=2) iop(6/42=6)

apoCaM-CA-Ng.loop1.water3.frame1377 

   0  1 
C         -2.05480       68.13649       49.06196
C         -1.84698       66.65435       49.09895
O         -0.86725       66.20690       49.67893
H         -3.01724       68.38643       49.55383
H         -1.23180       68.66102       49.59373
H         -2.07628       68.48379       48.00783
N         -2.73312       65.82617       48.47642
C         -2.58409       64.37901       48.45551
C         -2.29660       63.93558       47.03545
O         -3.10334       64.14726       46.14114
C         -3.82137       63.67925       49.03200
C         -4.03118       64.06151       50.47127
O         -5.06782       64.60298       50.81875
O         -3.07518       63.80525       51.38603
H         -3.53125       66.24169       47.97146
H         -1.72820       64.07471       49.09785
H         -3.67318       62.57769       48.98559
H         -4.71873       63.93852       48.42927
N         -1.10736       63.33293       46.78059
C         -0.61199       62.94146       45.46582
C         -0.47330       61.42627       45.32654
O         -1.03760       60.91548       44.36848
C          0.71816       63.65780       45.15059
C          0.56097       65.18025       45.26625
C          1.85931       65.91782       44.93272
C          1.66747       67.42859       45.12292
N          2.88871       68.16175       44.79790
H         -0.49838       63.22005       47.58890
H         -1.33087       63.27378       44.68140
H          1.02949       63.39592       44.11445
H          1.52356       63.33006       45.83692
H          0.27090       65.43605       46.30868
H         -0.24212       65.52209       44.57676
H          2.14747       65.70319       43.88025
H          2.67183       65.56582       45.60608
H          1.38856       67.63343       46.18139
H          0.84117       67.78498       44.46825
H          2.72231       69.18250       44.95223
H          3.67235       67.84859       45.41563
H          3.14237       68.00712       43.79524
N          0.19225       60.59325       46.18962
C          0.78031       60.95599       47.47922
C         -0.24307       60.66336       48.57878
O         -1.31087       60.14764       48.27653
C          2.12912       60.25218       47.69277
C          1.97322       58.77212       47.67436
O          1.18550       58.16660       48.57661
O          2.51869       58.11279       46.80583
H          0.12099       59.58347       45.98462
H          1.06259       62.01106       47.50368
H          2.57904       60.55878       48.66081
H          2.82254       60.56271       46.87896
N         -0.01746       61.02194       49.87188
C         -1.02360       60.84024       50.91106
C         -1.19648       59.40097       51.35947
O         -0.48738       58.51955       50.90105
H          0.85336       61.51952       50.10935
H         -1.99037       61.26511       50.56515
H         -0.70914       61.40781       51.81358
N         -2.14060       59.10961       52.29857
C         -2.25765       57.82324       52.99918
C         -2.46162       58.09116       54.49998
O         -2.68741       59.24289       54.84870
C         -3.45571       57.03937       52.42948
C         -3.25394       56.70805       50.97864
O         -2.20903       55.94685       50.60006
O         -4.04186       57.11360       50.13956
H         -2.79437       59.86603       52.55567
H         -1.32719       57.23160       52.85890
H         -4.38430       57.63842       52.55691
H         -3.59426       56.08164       52.96048
N         -2.42935       57.14438       55.48679
C         -2.05401       55.74400       55.38265
C         -0.59124       55.60191       55.06706
O          0.21337       56.29561       55.67350
H         -2.64935       57.46638       56.44326
H         -2.70538       55.16864       54.69918
H         -2.18533       55.29284       56.39069
N         -0.15870       54.66845       54.17738
C          1.24969       54.52662       53.83381
C          1.66739       55.72326       53.00973
O          1.01429       56.01412       52.01911
C          1.52758       53.21667       53.05925
C          1.25681       51.99201       53.94526
O          2.88044       53.19486       52.67510
H         -0.85005       54.03687       53.74476
H          1.86271       54.46372       54.76219
H          0.87805       53.18684       52.15417
H          2.97254       52.49984       51.97212
H          0.20034       51.96032       54.27990
H          1.47493       51.06102       53.38094
H          1.91559       52.01576       54.84159
N          2.77303       56.43809       53.36170
C          3.33017       57.57399       52.63366
C          3.67759       57.16475       51.20943
O          2.77706       56.95169       50.41425
C          2.39512       58.81829       52.64479
C          1.76111       59.11910       54.02492
C          3.11127       60.05724       52.07714
C          2.75510       59.37250       55.15631
H          3.29616       56.13340       54.19691
H          4.26468       57.85552       53.16843
H          1.54856       58.60582       51.98026
H          1.11916       58.26333       54.31500
H          1.08990       60.00130       53.92934
H          2.41524       60.92247       52.04710
H          3.99159       60.32818       52.69574
H          3.46066       59.86932       51.04031
H          2.19117       59.56551       56.09349
H          3.39761       58.48348       55.32015
H          3.38772       60.25648       54.94184
N          4.96929       57.03271       50.81528
C          5.34633       56.65067       49.45758
C          6.07604       55.31339       49.41669
O          6.51932       54.95500       48.33660
C          6.15266       57.79398       48.79079
C          7.44259       58.15844       49.52738
O          5.35097       58.94407       48.70703
H          5.71479       57.19956       51.50636
H          4.44945       56.50537       48.81385
H          6.44829       57.47455       47.76205
H          4.82270       58.86623       47.87073
H          7.22462       58.55494       50.54037
H          8.11045       57.27675       49.61000
H          7.97235       58.95525       48.96335
N          6.21284       54.50642       50.51703
C          6.89569       53.20687       50.48674
C          6.13703       52.25639       49.55855
O          5.14374       51.67802       49.97798
C          7.01175       52.63511       51.92748
C          7.84227       51.35303       51.98698
O          7.62508       53.58661       52.76370
H          5.81962       54.82593       51.41334
H          7.92663       53.37843       50.10373
H          5.98781       52.39424       52.30758
H          6.92209       53.96475       53.35607
H          7.88556       50.99069       53.03703
H          7.39518       50.55533       51.35929
H          8.87899       51.55382       51.64169
N          6.46346       52.19941       48.23135
C          5.65149       51.59296       47.16972
C          4.24775       52.19351       47.13369
O          3.86980       52.88584       48.06483
C          5.55552       50.05952       47.26717
C          6.91957       49.36217       47.34443
C          6.72582       47.83935       47.30434
C          8.03877       47.08707       47.54625
N          7.82518       45.64083       47.47725
H          7.30234       52.71100       47.91872
H          6.14986       51.84395       46.20588
H          5.01799       49.69335       46.36388
H          4.96121       49.77293       48.16134
H          7.41488       49.65665       48.29513
H          7.56541       49.66926       46.49207
H          6.30864       47.55493       46.31219
H          6.00289       47.53665       48.09286
H          8.42504       47.35219       48.55584
H          8.79691       47.38405       46.78849
H          7.09561       45.34774       48.16759
H          7.52357       45.36980       46.51295
H          8.71942       45.14898       47.70347
N          3.41281       51.98929       46.07313
C          2.03631       52.48791       46.06662
C          1.94263       53.98460       46.43314
O          0.60506       54.25877       46.73692
C          1.32173       52.24134       44.71977
C          1.05211       50.76234       44.44578
C          0.37190       50.59699       43.11659
O         -0.70495       51.13212       42.90186
O          0.95042       49.85703       42.15246
H          3.76848       51.46834       45.25815
H          1.48754       51.95268       46.87491
H          1.92389       52.68781       43.89770
H          0.33307       52.75292       44.73527
H          0.39189       50.35730       45.24366
H          2.00216       50.19069       44.44529
N          2.40743       54.91398       45.39220
C          3.84179       54.80753       45.12442
H          4.43354       54.80125       46.06561
H          4.05151       53.90183       44.52100
H          4.16791       55.67847       44.51715
H          2.24913       55.87427       45.77038
Ca         0.68023       56.07337       48.05334
O          2.06939       54.27422       49.92570
H          3.03963       54.23741       50.11937
H          1.83959       53.37007       49.59752
O         -2.11436       57.28745       47.49911
H         -2.49498       56.39269       47.68416
H         -2.01852       57.70100       48.39283
O         -0.97331       53.49135       49.36097
H         -0.57270       52.59887       49.20885
H         -1.77472       53.50672       48.77979

Ca 1.0



