%chk=apoCaM-CA-Ng.loop3.water3.frame940.chk
%nprocshared=20
%mem=10GB
%nosave
#b3lyp/svp scf=(tight,noincore,xqc) Test 
#IOP(5/87=12) Density=Current Pop=(MK,readradii) iop(6/33=2) iop(6/42=6)

apoCaM-CA-Ng.loop3.water3.frame940 

   0  1 
C        -24.20769      109.39255       65.73468
C        -25.04451      110.62254       65.52915
O        -26.16683      110.67889       66.00978
H        -23.28500      109.67503       66.29000
H        -24.75048      108.63232       66.33489
H        -23.91760      108.95649       64.75768
N        -24.51193      111.68596       64.87119
C        -25.14684      112.99618       64.82513
C        -26.34767      113.07380       63.87959
O        -26.19407      112.84229       62.68899
C        -24.08007      114.05151       64.45927
C        -24.53131      115.45015       64.73124
O        -23.69151      116.47998       64.52850
O        -25.64576      115.66114       65.16619
H        -23.54289      111.59262       64.52694
H        -25.47200      113.23218       65.85755
H        -23.77237      113.93930       63.39825
H        -23.18728      113.89737       65.09848
N        -27.57312      113.44443       64.35839
C        -28.77559      113.60865       63.52999
C        -28.66508      114.75037       62.51122
O        -29.36024      114.71292       61.50629
C        -30.01707      113.82251       64.43974
C        -29.99005      115.17226       65.19443
C        -31.05735      115.31481       66.29303
C        -30.80619      114.35914       67.47484
N        -31.68939      114.66317       68.59977
H        -27.65444      113.59310       65.37526
H        -28.93356      112.65255       62.98343
H        -30.03170      112.97543       65.15500
H        -30.95400      113.77414       63.84188
H        -30.14135      115.98489       64.45210
H        -29.00395      115.33624       65.67400
H        -32.07877      115.17035       65.87938
H        -30.99182      116.35568       66.67652
H        -29.75303      114.46455       67.81787
H        -30.96702      113.30723       67.15823
H        -31.50863      113.97806       69.36894
H        -31.48929      115.62565       68.95849
H        -32.69058      114.59337       68.30820
N        -27.89052      115.84302       62.77006
C        -27.78468      117.03697       61.92958
C        -26.36033      117.29393       61.44534
O        -26.16520      118.25561       60.71432
C        -28.35806      118.25771       62.70146
C        -27.91918      118.35845       64.15403
O        -28.76099      118.21469       65.02263
O        -26.63989      118.57512       64.52886
H        -27.37340      115.85491       63.65061
H        -28.38852      116.92061       61.00148
H        -29.46219      118.11779       62.71344
H        -28.16393      119.20398       62.15254
N        -25.32416      116.46712       61.76047
C        -23.96723      116.64061       61.26361
C        -23.23163      117.87505       61.75830
O        -22.07816      118.01087       61.37094
H        -25.50239      115.62696       62.32142
H        -23.98660      116.65036       60.15167
H        -23.36626      115.76065       61.57997
N        -23.79108      118.82159       62.57381
C        -23.07511      120.02860       62.98609
C        -23.08764      120.23098       64.49569
O        -23.79378      119.52891       65.20675
C        -23.68490      121.24399       62.25350
C        -25.11801      121.51295       62.65379
N        -26.13004      121.35692       61.77014
O        -25.36590      121.88198       63.79082
H        -24.76870      118.72425       62.87130
H        -22.01024      119.95978       62.67364
H        -23.62868      121.03677       61.16227
H        -23.08697      122.16079       62.44437
H        -25.94985      121.03909       60.80747
H        -27.10305      121.54087       62.05705
N        -22.31540      121.21090       65.04237
C        -22.31150      121.58979       66.44719
C        -22.02580      120.44172       67.38708
O        -21.14726      119.63537       67.11709
H        -21.69430      121.74752       64.41682
H        -23.28801      122.05296       66.70848
H        -21.53011      122.36550       66.59545
N        -22.71486      120.35485       68.56161
C        -22.53685      119.27853       69.53269
C        -23.12077      117.97469       68.99962
O        -23.58232      117.92996       67.87275
C        -23.19304      119.67563       70.88452
C        -22.50120      120.85635       71.53062
C        -23.19646      122.05323       71.77024
C        -21.15316      120.75944       71.92447
C        -22.55363      123.13338       72.38581
C        -20.51345      121.83967       72.53856
C        -21.20896      123.02932       72.77168
O        -20.57762      124.06063       73.36857
H        -23.38191      121.10927       68.78805
H        -21.45408      119.11718       69.72319
H        -23.13195      118.84930       71.62063
H        -24.26924      119.88871       70.72150
H        -24.23579      122.15139       71.48394
H        -20.59562      119.84535       71.76423
H        -23.10205      124.04939       72.56508
H        -19.47617      121.74966       72.83733
H        -21.02192      124.90055       73.55223
N        -23.11095      116.85896       69.77610
C        -23.60052      115.54208       69.38905
C        -25.13256      115.49937       69.12280
O        -25.73148      115.85961       67.89274
C        -22.76186      114.88459       68.26128
C        -23.18306      113.40814       68.00446
C        -21.25839      114.95504       68.58377
C        -23.08088      112.45361       69.20329
H        -22.70010      116.92501       70.71862
H        -23.42657      114.90546       70.28042
H        -22.92170      115.44764       67.31664
H        -22.55988      112.99324       67.18446
H        -24.22981      113.39227       67.66490
H        -20.66955      114.47968       67.77122
H        -20.92540      116.01068       68.66504
H        -21.02713      114.44688       69.54291
H        -22.04147      112.38921       69.58261
H        -23.75917      112.75630       70.02705
H        -23.39386      111.43648       68.88627
N        -26.01617      115.42719       70.29314
C        -27.33422      114.80793       70.01882
C        -28.20915      114.77664       71.26301
O        -29.40069      114.54040       71.10830
C        -27.24698      113.35563       69.48632
O        -26.65708      113.31162       68.22190
H        -25.51999      114.81881       70.98125
H        -27.86269      115.44106       69.27859
H        -28.27705      112.94067       69.39375
H        -26.66591      112.73195       70.20315
H        -26.67756      112.36013       67.94384
N        -27.71463      114.94046       72.52797
C        -28.58205      114.87137       73.69593
C        -29.52297      116.06703       73.70929
O        -29.22984      117.03818       73.02412
C        -27.73878      114.83173       74.96936
H        -26.70805      115.07711       72.68432
H        -29.15618      113.92111       73.62596
H        -27.06429      113.94809       74.94911
H        -27.12190      115.75085       75.06261
H        -28.39023      114.74345       75.84927
N        -30.71206      116.09173       74.37697
C        -31.28698      115.01400       75.17416
C        -31.84050      115.58790       76.47764
O        -32.55123      116.58113       76.40189
C        -32.42719      114.38279       74.37330
H        -31.30159      116.92727       74.23140
H        -30.55665      114.20685       75.35423
H        -32.02594      113.96338       73.42456
H        -32.88710      113.55323       74.95183
H        -33.20812      115.13272       74.12572
N        -31.62525      115.04812       77.71473
C        -30.96307      113.77429       77.96895
C        -29.46867      113.93994       78.18459
O        -28.78988      112.92637       78.28029
C        -31.57708      113.09165       79.21269
C        -33.08455      112.82979       79.05876
C        -33.64003      112.16484       80.28547
O        -34.60529      112.77091       81.00320
O        -33.22631      111.07055       80.63447
H        -32.07828      115.52006       78.51408
H        -31.13876      113.08859       77.11296
H        -31.40734      113.73501       80.10552
H        -31.06507      112.11823       79.38132
H        -33.26820      112.17753       78.17831
H        -33.62265      113.78896       78.90207
N        -28.88190      115.16890       78.29232
C        -27.45819      115.35317       78.49835
H        -26.90294      114.39181       78.52371
H        -27.04387      115.96931       77.67364
H        -27.29007      115.88196       79.45886
H        -29.45362      116.02339       78.23681
Ca       -25.90760      117.80397       66.58729
O        -27.05989      120.74837       66.63696
H        -26.52786      121.17719       65.92243
H        -27.92424      121.22996       66.62378
O        -28.58255      117.58730       68.08544
H        -29.29698      117.33078       68.71950
H        -28.85569      117.17504       67.23190
O        -26.30231      118.96284       69.33501
H        -25.99194      119.85378       69.03493
H        -27.19005      119.13274       69.73764

Ca 1.0



