%chk=apoCaM-CA-Ng.loop2.water4.frame184.chk
%nprocshared=20
%mem=10GB
%nosave
#b3lyp/svp scf=(tight,noincore,xqc) Test 
#IOP(5/87=12) Density=Current Pop=(MK,readradii) iop(6/33=2) iop(6/42=6)

apoCaM-CA-Ng.loop2.water4.frame184 

   -2  1 
C        104.02263       61.11585       21.04988
C        105.22402       61.48224       21.87037
O        105.92737       60.59771       22.33827
H        103.10815       61.52797       21.52677
H        104.12290       61.54320       20.02991
H        103.91796       60.01308       20.96848
N        105.52080       62.79456       22.08387
C        106.67974       63.24244       22.85289
C        106.57570       62.91511       24.34955
O        107.51051       63.24191       25.05846
C        106.86525       64.76591       22.64509
C        108.14942       65.28921       23.23098
O        108.11971       66.24343       24.18059
O        109.22363       64.85571       22.84463
H        104.91565       63.50183       21.63666
H        107.57923       62.73952       22.43119
H        105.99938       65.30747       23.08535
H        106.89247       64.98261       21.55481
N        105.48320       62.29876       24.89868
C        105.28544       61.96568       26.31124
C        106.27201       60.93121       26.84724
O        105.86765       59.79153       27.02366
C        105.21606       63.21843       27.19155
H        104.69390       62.05405       24.28736
H        104.27892       61.49184       26.37274
H        104.41575       63.89217       26.81884
H        104.97618       62.93330       28.23809
H        106.17147       63.78025       27.18905
N        107.55610       61.25456       27.17800
C        108.52420       60.30756       27.72485
C        109.70318       60.09403       26.78232
O        110.63674       59.40172       27.16436
C        108.96181       60.75847       29.13911
C        109.70156       62.07095       29.22933
O        109.97220       62.72672       28.23608
O        110.08225       62.52237       30.43943
H        107.86936       62.22355       27.07013
H        108.06040       59.30547       27.85904
H        109.61429       59.97343       29.57947
H        108.05034       60.82993       29.77194
N        109.69297       60.58125       25.50495
C        110.72798       60.30514       24.52211
C        110.90632       58.81702       24.34945
O        112.02593       58.33429       24.44634
H        108.88447       61.11914       25.16912
H        111.68699       60.78089       24.82241
H        110.41411       60.74208       23.54885
N        109.81802       58.01615       24.18043
C        109.91261       56.56317       24.16627
C        110.46614       56.06323       22.84857
O        109.86615       56.29495       21.80839
C        108.53932       55.92631       24.45719
C        108.06438       56.28492       25.84744
N        108.76547       55.89526       26.94016
O        107.03796       56.93088       25.98877
H        108.88405       58.45610       24.18026
H        110.58675       56.24357       24.99063
H        108.61312       54.81873       24.39721
H        107.80432       56.26833       23.69590
H        109.62660       55.33689       26.84900
H        108.44555       56.14621       27.88661
N        111.61640       55.33668       22.83913
C        112.21171       54.75248       21.65150
C        111.33622       53.67700       21.04768
O        110.80617       52.85867       21.78598
H        112.10624       55.17347       23.73230
H        113.15408       54.25250       21.96301
H        112.47912       55.53737       20.91125
N        111.22779       53.55794       19.69290
C        110.51191       52.44823       19.05649
C        108.99690       52.63586       19.06279
O        108.30802       51.72792       18.61055
C        111.03377       52.17949       17.61551
C        110.76192       53.30919       16.61012
O        112.40131       51.84853       17.63736
H        111.77298       54.20934       19.11131
H        110.74662       51.51910       19.62380
H        110.49976       51.28357       17.22801
H        112.92023       52.67568       17.81153
H        111.13652       53.00922       15.60861
H        109.67320       53.49174       16.52413
H        111.26756       54.25140       16.90287
N        108.39980       53.76413       19.54363
C        106.95134       53.97948       19.55239
C        106.44876       54.03620       20.98544
O        107.26705       53.92902       21.89436
C        106.58341       55.26526       18.73977
C        107.16209       56.56215       19.37523
C        107.03310       55.10226       17.27706
C        106.71270       57.84580       18.67240
H        108.99053       54.50943       19.93837
H        106.42596       53.12138       19.07765
H        105.47614       55.35431       18.73166
H        108.27153       56.54264       19.37459
H        106.81591       56.63346       20.42768
H        106.66877       55.93722       16.64609
H        108.13929       55.07005       17.21179
H        106.61624       54.16634       16.84820
H        107.11837       58.72490       19.21677
H        107.09616       57.89462       17.63309
H        105.60457       57.91549       18.66321
N        105.12548       54.23021       21.27727
C        104.66653       54.40284       22.65015
C        103.37297       53.63500       22.93941
O        102.44088       54.20774       23.48519
C        104.57697       55.92042       22.91824
C        104.38312       56.30028       24.35798
O        104.34198       57.48265       24.65576
O        104.29477       55.36804       25.32771
H        104.45168       54.37853       20.50977
H        105.43369       53.99193       23.34324
H        103.76624       56.35872       22.29664
H        105.53865       56.38310       22.60453
N        103.26779       52.30981       22.63047
C        102.15613       51.45461       23.06078
C        100.77905       51.99805       22.66582
O        100.54148       52.17179       21.47866
C        102.32361       50.03459       22.46850
C        101.28279       49.07006       22.99223
C        101.26841       48.71514       24.35225
C        100.31992       48.51576       22.13005
C        100.30521       47.82836       24.84183
C         99.35600       47.63070       22.62495
C         99.34863       47.28766       23.97950
H        104.04970       51.87483       22.11685
H        102.23279       51.37024       24.16102
H        103.32791       49.62782       22.71514
H        102.25834       50.11105       21.35991
H        102.00308       49.12501       25.03364
H        100.30808       48.77312       21.07834
H        100.30056       47.56114       25.89061
H         98.61339       47.21089       21.95860
H         98.60262       46.60237       24.36100
N         99.79563       52.23772       23.59637
C         98.44247       52.66042       23.26331
C         98.40322       54.11166       22.81820
O         97.65676       54.41890       21.89922
C         97.65948       52.38303       24.55541
C         98.67764       52.63666       25.63924
C         99.93992       52.02779       25.02954
H         97.97206       52.02444       22.47912
H         96.69006       52.91704       24.65491
H         97.44966       51.28817       24.59100
H         98.79698       53.73447       25.72827
H         98.41923       52.24627       26.64673
H        100.82290       52.54217       25.46559
H         99.98701       50.93596       25.21893
N         99.20975       55.05230       23.38918
C         99.21812       56.45729       22.98628
C         99.65426       56.64758       21.53620
O         99.53241       57.76198       21.04612
C        100.18198       57.25645       23.89031
C         99.73699       57.28123       25.36270
C        100.83578       57.82902       26.22109
O        100.67598       58.85032       26.86891
O        102.00108       57.15618       26.29000
H         99.85512       54.75507       24.13167
H         98.18591       56.85951       23.09826
H        100.26438       58.31104       23.54444
H        101.18686       56.78564       23.79930
H         99.52109       56.26267       25.74283
H         98.80984       57.88850       25.45495
N        100.18729       55.63179       20.79510
C        100.59869       55.77727       19.41453
H        101.68334       55.55664       19.33143
H        100.03556       55.05279       18.78930
H        100.41294       56.79760       19.01966
H        100.33412       54.70624       21.21414
Ca       103.76476       57.78745       27.54785
O        105.77177       58.61388       29.79061
H        105.54808       57.85448       30.38477
H        105.17433       59.34564       30.08707
O        102.80147       56.12973       29.81467
H        103.37798       56.34548       30.59010
H        101.93415       56.56029       30.02118
O        105.84398       55.45244       28.66409
H        105.45288       54.56174       28.84717
H        106.52763       55.57213       29.37033
O        102.84807       60.45413       28.37542
H        102.38881       59.76387       28.91654
H        103.21422       61.08866       29.04038

Ca 1.0



