%chk=apoCaM-CA-Ng.loop2.water4.frame1199.chk
%nprocshared=20
%mem=10GB
%nosave
#b3lyp/svp scf=(tight,noincore,xqc) Test 
#IOP(5/87=12) Density=Current Pop=(MK,readradii) iop(6/33=2) iop(6/42=6)

apoCaM-CA-Ng.loop2.water4.frame1199 

   -2  1 
C         14.88898      108.11957      110.74773
C         13.76210      107.28704      110.20431
O         12.70485      107.83862      109.93718
H         15.76025      108.05662      110.06132
H         14.58564      109.18354      110.83256
H         15.17697      107.75519      111.75615
N         13.88310      105.94774      109.98798
C         15.08453      105.16943      110.27589
C         14.77241      104.08611      111.29984
O         13.64004      104.00827      111.75836
C         15.73742      104.69443      108.96135
C         14.88615      103.82495      108.09074
O         15.28539      102.71615      107.79116
O         13.73262      104.28119      107.56550
H         13.06633      105.44999      109.60045
H         15.85938      105.79709      110.75603
H         16.68357      104.16094      109.19555
H         16.00971      105.59303      108.36587
N         15.75517      103.25788      111.76372
C         15.58615      102.34474      112.89225
C         14.41433      101.40297      112.68245
O         13.49006      101.38924      113.48530
C         15.45524      103.15579      114.19123
H         16.69231      103.30835      111.33792
H         16.51091      101.73361      112.99492
H         14.54820      103.79560      114.17892
H         15.39959      102.47377      115.06635
H         16.34579      103.80825      114.31508
N         14.39983      100.57486      111.60529
C         13.27931       99.67977      111.30123
C         13.66561       98.68353      110.20107
O         14.80292       98.70675      109.74595
C         12.01493      100.52556      110.94306
C         12.12465      101.27238      109.63885
O         13.16294      101.01224      108.83408
O         11.21508      101.98915      109.25523
H         15.22830      100.60017      110.99265
H         13.05326       99.07451      112.20685
H         11.80112      101.25071      111.75324
H         11.13000       99.85910      110.86970
N         12.78027       97.76507      109.71806
C         13.17305       96.81384      108.68529
C         13.55313       97.49593      107.38535
O         13.31871       98.67954      107.23753
H         11.82398       97.71987      110.09964
H         12.34686       96.10034      108.47809
H         14.04456       96.23645      109.06160
N         14.12863       96.77809      106.38423
C         14.51353       97.33018      105.07561
C         14.85532       96.20091      104.11174
O         15.09567       95.07636      104.53219
C         15.76345       98.25253      105.15591
C         15.59204       99.55634      105.94535
N         16.88466      100.08631      106.36327
O         14.91198      100.51779      105.17860
H         14.24808       95.77159      106.56872
H         13.63429       97.86215      104.64911
H         16.11850       98.53572      104.13919
H         16.56753       97.64636      105.62759
H         17.34447       99.37691      106.97930
H         16.70996      100.91033      106.97727
N         14.87879       96.43979      102.77258
C         15.18148       95.41187      101.79020
C         14.19423       94.24784      101.82144
O         13.27037       94.27212      102.62220
H         14.67072       97.39083      102.42976
H         16.20918       95.03007      101.97233
H         15.14744       95.89423      100.79737
N         14.30634       93.16353      100.99462
C         15.32397       93.00975       99.95687
C         15.13150       94.12151       98.94217
O         16.03385       94.92737       98.76305
C         15.22863       91.60099       99.31297
C         16.33383       91.36967       98.27750
O         15.34878       90.63145      100.32395
H         13.61144       92.40855      101.11297
H         16.32988       93.08902      100.42863
H         14.23444       91.49802       98.81953
H         14.96321       89.78845       99.96691
H         16.26717       92.10961       97.45398
H         17.33245       91.44548       98.75905
H         16.22967       90.35296       97.84159
N         13.93172       94.26452       98.30919
C         13.54853       95.45931       97.55854
C         12.27243       96.05715       98.17120
O         11.66838       95.40484       99.01125
C         13.41031       95.14202       96.03417
C         12.56005       93.89298       95.67203
C         14.81267       94.95770       95.42914
C         11.09937       93.94453       96.10794
H         13.21751       93.53322       98.44224
H         14.33270       96.23480       97.68648
H         12.96698       96.02090       95.52147
H         13.02565       92.97313       96.08877
H         12.55835       93.79395       94.56389
H         14.74394       94.80470       94.33057
H         15.42959       95.86588       95.60115
H         15.33045       94.08371       95.87830
H         10.60427       94.85257       95.70697
H         10.57255       93.04816       95.71792
H         11.00870       93.91212       97.20746
N         11.78194       97.29735       97.86213
C         12.44091       98.30189       97.03722
C         11.62311       98.68668       95.81129
O         12.08645       99.54633       95.07535
C         12.70970       99.55206       97.89987
C         13.55519       99.23193       99.10259
O         13.07348       99.44935      100.34138
O         14.68077       98.78002       98.96385
H         10.89818       97.58351       98.31488
H         13.41974       97.94313       96.66353
H         11.74097       99.97972       98.23860
H         13.23917      100.32246       97.29803
N         10.44745       98.06669       95.47949
C          9.77186       98.32972       94.21078
C          8.25656       98.29379       94.36534
O          7.77215       97.32238       94.92825
C         10.20668       97.25089       93.20168
C          9.86269       97.68235       91.79901
C          8.62230       97.37223       91.21821
C         10.78700       98.45883       91.07813
C          8.31787       97.83239       89.93147
C         10.47929       98.91512       89.79620
C          9.24536       98.60286       89.22229
H         10.11149       97.28114       96.05331
H         10.11462       99.29754       93.79398
H          9.79905       96.24544       93.44791
H         11.31360       97.15189       93.25536
H          7.89111       96.78806       91.76253
H         11.74265       98.72102       91.51652
H          7.36033       97.59882       89.48539
H         11.19661       99.51659       89.25272
H          9.00800       98.96290       88.22993
N          7.41802       99.23733       93.82425
C          7.80776      100.38038       93.00782
C          8.54192      101.44284       93.78595
O          9.54762      101.94859       93.31146
C          6.47194      100.93429       92.48406
C          5.60873       99.68753       92.45011
C          5.97780       99.06761       93.78913
H          8.39197      100.02812       92.13097
H          6.00920      101.61245       93.23742
H          6.55364      101.48761       91.52316
H          4.52355       99.87960       92.31258
H          5.96834       99.01889       91.63454
H          5.52673       99.67172       94.60937
H          5.63477       98.01434       93.86763
N          8.07982      101.82224       95.00963
C          8.67649      102.89486       95.78885
C          8.28430      104.22542       95.16372
O          7.09379      104.49267       95.07582
C          8.18033      102.83473       97.25006
C          8.71190      101.57538       97.96393
C          8.24847      101.45542       99.39068
O          7.49323      102.27778       99.88585
O          8.67462      100.41710      100.13462
H          7.26874      101.32063       95.40216
H          9.77692      102.75739       95.82461
H          7.06712      102.85153       97.27185
H          8.55685      103.72516       97.80039
H          9.82281      101.61276       97.96486
H          8.39203      100.66020       97.42213
N          9.19201      105.12860       94.69777
C         10.62337      104.93137       94.74516
H         10.95780      104.81585       95.79761
H         10.90688      104.03569       94.15523
H         11.13811      105.81213       94.30676
H          8.84375      106.00926       94.28743
Ca        13.32561      101.26050      106.61620
O         10.43020       99.80796      107.16995
H         10.53399       98.95331      107.65848
H          9.82830      100.34703      107.74185
O         12.10347      100.53429      103.85000
H         12.96209      100.28892      103.42290
H         11.52063      100.80044      103.09570
O         13.27182      103.54204      104.55820
H         14.23919      103.66738      104.38878
H         12.82394      104.14909      103.91722
O         10.45311      102.64014      105.83876
H         10.38625      103.00592      104.92109
H         10.17341      103.38676      106.42577

Ca 1.0



