%chk=apoCaM-CA-Ng.loop3.water2.frame544.chk
%nprocshared=20
%mem=10GB
%nosave
#b3lyp/svp scf=(tight,noincore,xqc) Test 
#IOP(5/87=12) Density=Current Pop=(MK,readradii) iop(6/33=2) iop(6/42=6)

apoCaM-CA-Ng.loop3.water2.frame544 

   0  1 
C         57.80083        4.05721       76.93828
C         56.58040        3.36723       77.46806
O         55.79070        3.99352       78.16086
H         58.71197        3.53707       77.30035
H         57.78370        4.03522       75.82807
H         57.83288        5.11585       77.27341
N         56.35384        2.06028       77.16022
C         55.16718        1.33910       77.60420
C         55.16807        1.24311       79.12416
O         56.06030        0.61308       79.67626
C         55.14542       -0.06148       76.94740
C         53.85830       -0.81675       77.11917
O         53.75153       -1.93231       76.63752
O         52.80400       -0.26570       77.74586
H         57.04003        1.57937       76.55689
H         54.27927        1.90465       77.24341
H         55.99095       -0.66739       77.34099
H         55.29201        0.05847       75.85390
N         54.23321        1.90327       79.86908
C         54.26624        1.91424       81.33340
C         53.87985        0.56249       81.92700
O         54.12270        0.34828       83.10677
C         53.33631        3.02605       81.85869
C         53.48008        3.33233       83.35828
C         52.57086        4.50499       83.74995
C         52.76521        4.89964       85.21932
N         51.90916        6.03284       85.57018
H         53.53157        2.47774       79.37654
H         55.30712        2.17389       81.63127
H         52.29126        2.74781       81.62619
H         53.58752        3.96116       81.31033
H         54.53793        3.60651       83.56451
H         53.20888        2.45046       83.97436
H         51.50879        4.22235       83.57686
H         52.81329        5.38435       83.11383
H         53.82873        5.18244       85.38645
H         52.52337        4.03582       85.87748
H         52.07626        6.29351       86.56878
H         52.13553        6.85584       84.96514
H         50.90293        5.77420       85.45000
N         53.24974       -0.38612       81.17608
C         52.85752       -1.69712       81.67760
C         53.57675       -2.81935       80.94089
O         53.39573       -3.96626       81.32565
C         51.31760       -1.87202       81.61942
C         50.70652       -1.74024       80.24501
O         50.12449       -2.68659       79.74016
O         50.72460       -0.55979       79.59813
H         53.02896       -0.17070       80.19880
H         53.14899       -1.79965       82.74571
H         50.83710       -1.11503       82.27537
H         51.06627       -2.87474       82.03081
N         54.41847       -2.58060       79.88843
C         55.14886       -3.62907       79.19699
C         54.27562       -4.65506       78.50068
O         54.84192       -5.61399       77.99600
H         54.59752       -1.62043       79.57694
H         55.78343       -4.15490       79.94321
H         55.82282       -3.17420       78.43855
N         52.91119       -4.56351       78.45941
C         52.05805       -5.63707       77.95743
C         51.13791       -5.10274       76.82971
O         51.83297       -4.16776       76.08568
C         51.31248       -6.17711       79.20096
C         50.52916       -7.44947       79.02557
N         50.98353       -8.60569       79.56554
O         49.46065       -7.43734       78.43544
H         52.43811       -3.74161       78.85717
H         52.68777       -6.45236       77.53914
H         50.65977       -5.39551       79.64760
H         52.10705       -6.38658       79.95145
H         51.87815       -8.63633       80.07771
H         50.44750       -9.47895       79.46351
N         50.71792       -6.14930       75.88367
C         49.64151       -5.72179       74.96604
C         50.06521       -4.63495       73.98855
O         51.06876       -4.80840       73.31112
H         50.39863       -7.00556       76.37539
H         48.73768       -5.42207       75.54067
H         49.36321       -6.60386       74.34923
N         49.31160       -3.50398       73.83018
C         49.63112       -2.45424       72.85659
C         50.65034       -1.41810       73.42851
O         51.59245       -1.99155       74.26250
C         48.33906       -1.69850       72.46675
C         47.37148       -2.55962       71.69172
C         46.16888       -2.99708       72.27237
C         47.65676       -2.90898       70.36104
C         45.27278       -3.77934       71.53562
C         46.75269       -3.67749       69.62164
C         45.55773       -4.11799       70.20832
O         44.67706       -4.86083       69.50746
H         48.42999       -3.43478       74.36181
H         50.05176       -2.93154       71.94335
H         48.56099       -0.80461       71.84325
H         47.86244       -1.33518       73.40254
H         45.92717       -2.74111       73.29631
H         48.57071       -2.56849       69.89014
H         44.35283       -4.11846       71.99532
H         46.98026       -3.92621       68.59258
H         44.83180       -5.10840       68.58449
N         51.28424       -0.61543       72.35380
C         52.69319       -0.15398       72.49125
C         52.85823        0.87828       73.60498
O         52.74054        0.54129       74.77187
C         53.77589       -1.30137       72.61052
C         55.23656       -0.77205       72.63347
C         53.60426       -2.38175       71.52805
C         55.70779       -0.07152       71.36001
H         51.18093       -1.08022       71.42186
H         52.90988        0.35621       71.52894
H         53.69326       -1.81628       73.58278
H         55.92003       -1.63030       72.82207
H         55.36167       -0.06973       73.48341
H         53.68744       -1.95072       70.50979
H         54.37490       -3.17334       71.65133
H         52.61671       -2.87757       71.62171
H         55.10148        0.83134       71.15107
H         56.76286        0.24729       71.49686
H         55.67069       -0.76022       70.49185
N         53.22734        2.15269       73.28776
C         53.68011        3.16283       74.25021
C         52.63142        3.69128       75.23618
O         52.99711        4.54458       76.03369
C         54.27477        4.35834       73.47502
O         55.34244        3.93583       72.66406
H         53.30695        2.37888       72.28489
H         54.50969        2.72045       74.84472
H         54.67141        5.12217       74.17662
H         53.48040        4.85652       72.86901
H         55.01233        3.90119       71.72813
N         51.34071        3.25512       75.27264
C         50.32994        3.79998       76.18522
C         49.92672        2.74405       77.20323
O         49.81859        1.59028       76.81864
C         49.12343        4.25483       75.36140
H         51.04463        2.50782       74.63019
H         50.70676        4.69426       76.72227
H         49.43814        5.03368       74.63475
H         48.68187        3.40517       74.80260
H         48.34006        4.68772       76.01417
N         49.70428        3.00166       78.52868
C         49.69629        4.31709       79.16891
C         48.50622        5.14220       78.68815
O         47.42495        4.57186       78.62690
C         49.52115        4.15532       80.68552
H         49.49707        2.18431       79.12602
H         50.68222        4.78988       79.02249
H         49.54328        5.14976       81.18251
H         48.55896        3.65457       80.92886
H         50.33906        3.54451       81.10159
N         48.53854        6.48000       78.40201
C         49.68871        7.37080       78.50370
C         49.97883        7.99971       77.15302
O         51.09885        7.86650       76.67942
C         49.49683        8.40683       79.64459
C         48.31657        9.38482       79.51835
C         48.25794       10.29795       80.71233
O         48.36489       11.50581       80.56849
O         48.08063        9.78990       81.94721
H         47.64267        6.91001       78.12520
H         50.59817        6.82576       78.80496
H         50.43177        9.00433       79.73061
H         49.37479        7.83478       80.59175
H         47.35702        8.83070       79.45469
H         48.44144       10.01305       78.61414
N         49.01663        8.67594       76.46043
C         49.24645        9.30050       75.17406
H         50.29358        9.18377       74.82537
H         48.57033        8.84644       74.42009
H         49.02257       10.38530       75.25046
H         48.06400        8.74973       76.84297
Ca        50.54727       -2.33447       76.21394
O         48.91571        0.73600       74.43859
H         48.93960        1.24999       73.59349
H         48.00809        0.88525       74.80378
O         48.23782       -0.80876       77.52739
H         47.89784       -1.46081       78.18999
H         47.44240       -0.28203       77.26297

Ca 1.0



