%chk=apoCaM-CA-Ng.loop3.water3.frame614.chk
%nprocshared=20
%mem=10GB
%nosave
#b3lyp/svp scf=(tight,noincore,xqc) Test 
#IOP(5/87=12) Density=Current Pop=(MK,readradii) iop(6/33=2) iop(6/42=6)

apoCaM-CA-Ng.loop3.water3.frame614 

   0  1 
C         98.16378       27.32843       80.85398
C         99.51985       27.93436       80.64971
O         99.62562       29.15214       80.61580
H         97.48806       27.64085       80.03130
H         98.21488       26.21895       80.86767
H         97.74891       27.67319       81.82378
N        100.61506       27.13717       80.51614
C        101.95977       27.66437       80.33698
C        102.02788       28.44859       79.02165
O        101.72974       27.88691       77.97676
C        102.97196       26.49754       80.37589
C        104.39542       26.95987       80.39717
O        105.30644       26.15550       80.29746
O        104.67742       28.26152       80.51843
H        100.48557       26.11440       80.56503
H        102.18517       28.32542       81.20131
H        102.79630       25.85879       79.48631
H        102.81611       25.88042       81.28630
N        102.35474       29.77320       79.01873
C        102.26968       30.63660       77.83564
C        103.16857       30.17962       76.68177
O        102.70257       30.20399       75.55141
C        102.44619       32.11362       78.26343
C        102.16851       33.13331       77.14089
C        102.03849       34.58275       77.66288
C        100.74503       34.81044       78.47897
N        100.62592       36.20043       78.91929
H        102.60166       30.20715       79.92250
H        101.22177       30.57811       77.46411
H        103.45006       32.29775       78.69747
H        101.69918       32.26597       79.06739
H        101.22915       32.88008       76.60297
H        103.00774       33.07838       76.41429
H        101.99627       35.26086       76.78248
H        102.93365       34.85266       78.26426
H        100.71624       34.16140       79.37717
H         99.86685       34.55785       77.84276
H        101.41583       36.44170       79.56066
H        100.62396       36.84569       78.09659
H         99.72482       36.31649       79.43869
N        104.41791       29.67062       76.89481
C        105.24606       29.06313       75.84447
C        105.47990       27.56067       76.03396
O        106.13888       26.96732       75.19007
C        106.56296       29.84087       75.56276
C        107.77446       29.93228       76.48816
O        107.86377       29.52001       77.77257
O        108.77599       30.43928       76.00899
H        104.74499       29.67074       77.85260
H        104.69479       29.12629       74.88005
H        106.28426       30.87824       75.28045
H        106.96985       29.36441       74.64170
N        104.92643       26.85906       77.06472
C        105.06770       25.41545       77.23423
C        106.44888       24.95582       77.66304
O        106.59537       23.76700       77.91512
H        104.31715       27.34636       77.73046
H        104.75547       24.88994       76.30525
H        104.37571       25.08994       78.03561
N        107.50737       25.80806       77.76383
C        108.84823       25.39899       78.16927
C        109.36765       26.32556       79.25848
O        108.66277       27.25163       79.64188
C        109.75622       25.44995       76.92602
C        109.27390       24.46857       75.88297
N        108.82832       24.89487       74.67854
O        109.27529       23.27264       76.13664
H        107.39087       26.79446       77.49947
H        108.85344       24.35943       78.56696
H        110.80313       25.18685       77.18423
H        109.75120       26.48517       76.51843
H        108.80563       25.89809       74.44630
H        108.49054       24.21745       73.97847
N        110.61294       26.16047       79.79210
C        111.16774       27.10468       80.75093
C        110.39282       27.14236       82.04704
O        109.64972       26.21564       82.33975
H        111.20837       25.38294       79.46964
H        111.14260       28.11157       80.28038
H        112.22845       26.86702       80.97738
N        110.49396       28.23797       82.85703
C        109.72835       28.40481       84.09453
C        108.22792       28.34875       83.83012
O        107.83131       28.17245       82.68675
C        110.08525       29.75258       84.77189
C        111.54817       29.86687       85.12564
C        112.32674       30.90515       84.58713
C        112.14388       28.95163       86.01057
C        113.67775       31.02351       84.92515
C        113.49613       29.06968       86.34396
C        114.26776       30.10767       85.80212
O        115.57208       30.23604       86.11797
H        111.12640       28.99653       82.55889
H        109.98087       27.57254       84.78656
H        109.51680       29.87517       85.71635
H        109.78589       30.58118       84.09274
H        111.88858       31.62699       83.90900
H        111.56351       28.14772       86.44498
H        114.26582       31.83007       84.50580
H        113.94148       28.35592       87.02548
H        116.01775       29.62441       86.72128
N        107.33563       28.46703       84.85913
C        105.88344       28.33549       84.74038
C        105.29812       29.39076       83.80353
O        105.63984       29.40097       82.63548
C        105.49434       26.88857       84.29171
C        103.95850       26.65681       84.24067
C        106.17429       25.82525       85.17854
C        103.23538       26.76402       85.58891
H        107.70137       28.61751       85.81145
H        105.46236       28.48839       85.75675
H        105.86810       26.72432       83.25836
H        103.76915       25.63872       83.83482
H        103.49786       27.38097       83.53575
H        105.89949       24.80484       84.83603
H        107.27959       25.90645       85.11368
H        105.88814       25.94020       86.24415
H        102.15314       26.56728       85.43931
H        103.61464       26.01083       86.30976
H        103.33896       27.77734       86.02510
N        104.36905       30.28857       84.23758
C        103.70392       31.22785       83.33420
C        103.93811       32.66548       83.75591
O        104.40511       33.45341       82.94408
C        102.20158       30.91499       83.29773
O        101.56514       31.75785       82.37462
H        104.08163       30.26738       85.22676
H        104.07235       31.10992       82.28976
H        101.74746       31.04890       84.30348
H        102.07676       29.85403       82.98544
H        100.67689       31.35526       82.19193
N        103.60293       33.08227       85.00771
C        103.66721       34.47145       85.45167
C        105.05979       35.07265       85.32592
O        106.01607       34.37892       85.64297
C        103.23790       34.56620       86.91098
H        103.23944       32.37874       85.66873
H        102.93844       35.03332       84.84032
H        103.28797       35.62155       87.22942
H        102.19696       34.19910       87.02959
H        103.91581       33.96912       87.55755
N        105.29280       36.34539       84.87237
C        104.27363       37.33264       84.50624
C        104.65371       38.73265       84.99165
O        105.78253       39.13339       84.74198
C        104.14717       37.35842       82.98530
H        106.27993       36.62063       84.74271
H        103.28141       37.06421       84.89295
H        105.11048       37.63717       82.50897
H        103.84205       36.35395       82.62188
H        103.36470       38.08867       82.68507
N        103.77931       39.60196       85.59176
C        102.37302       39.32708       85.86837
C        102.21752       38.36440       87.02704
O        101.53348       37.36211       86.87668
C        101.52005       40.61662       86.07366
C        101.70285       41.47326       87.34484
C        103.02280       42.18045       87.43054
O        103.82970       41.98330       88.49018
O        103.35353       42.96944       86.55961
H        104.13131       40.55174       85.77329
H        101.92231       38.88789       84.94939
H        100.45782       40.28352       86.09243
H        101.63338       41.26819       85.17910
H        101.52681       40.85716       88.25000
H        100.91592       42.25905       87.33706
N        102.82188       38.61295       88.22192
C        102.66985       37.74919       89.37173
H        103.05024       36.73392       89.14978
H        103.25073       38.15601       90.22647
H        101.60004       37.69112       89.66251
H        103.41537       39.44728       88.32491
Ca       106.34110       29.10821       79.33575
O        107.72064       31.47373       82.23259
H        108.15970       32.29141       81.88840
H        107.56793       31.65814       83.19338
O        105.91114       31.97627       79.44795
H        106.20396       32.27118       78.54909
H        105.96182       32.78892       80.01030
O        109.65530       30.43278       79.91651
H        110.10664       31.08482       80.50826
H        109.72467       30.83309       79.01380

Ca 1.0



