%chk=apoCaM-CA-Ng.loop3.water5.frame494.chk
%nprocshared=20
%mem=10GB
%nosave
#b3lyp/svp scf=(tight,noincore,xqc) Test 
#IOP(5/87=12) Density=Current Pop=(MK,readradii) iop(6/33=2) iop(6/42=6)

apoCaM-CA-Ng.loop3.water5.frame494 

   0  1 
C         42.75768       57.80286       98.10862
C         41.69816       58.39706       98.98667
O         41.95209       58.60973      100.16414
H         43.69217       57.62798       98.68452
H         42.40368       56.83197       97.70300
H         42.97878       58.49400       97.26925
N         40.46582       58.68144       98.47686
C         39.39119       59.23477       99.29247
C         39.78742       60.60803       99.81083
O         39.94410       61.52752       99.01878
C         38.08191       59.30140       98.47934
C         36.92729       59.79913       99.30262
O         36.32499       60.80698       98.96905
O         36.54303       59.12753      100.40491
H         40.28694       58.46690       97.48303
H         39.22410       58.53753      100.14418
H         37.82996       58.28230       98.11316
H         38.22622       59.95841       97.59256
N         40.02401       60.78779      101.14075
C         40.48296       62.03930      101.72446
C         41.92296       61.89446      102.12973
O         42.27708       60.95433      102.82896
C         39.64576       62.42419      102.95588
C         40.24910       63.65478      103.68346
C         39.43310       64.13986      104.88232
C         39.25682       63.06277      105.96341
N         38.54452       63.60364      107.11793
H         39.95059       59.97128      101.76698
H         40.40111       62.87644      100.99497
H         39.63354       61.56108      103.65317
H         38.60695       62.64233      102.62907
H         40.34558       64.49857      102.96547
H         41.26840       63.41198      104.05935
H         38.43948       64.48988      104.53314
H         39.97605       65.00527      105.32468
H         40.25243       62.68557      106.28936
H         38.67269       62.21109      105.55479
H         37.61216       63.97354      106.82153
H         38.40091       62.84069      107.81793
H         39.10631       64.36852      107.55736
N         42.79478       62.86791      101.76817
C         44.19152       62.86932      102.12503
C         44.48123       64.12784      102.95040
O         44.07493       65.20923      102.54789
C         44.97623       62.79833      100.80869
C         46.40349       62.46595      101.05617
O         46.92680       61.49172      100.54032
O         47.10686       63.26084      101.85654
H         42.45382       63.66283      101.20366
H         44.45308       61.96184      102.71449
H         44.88920       63.76345      100.26367
H         44.55299       61.99854      100.16161
N         45.17396       64.05685      104.12283
C         45.46407       65.20233      104.98228
C         46.19695       66.32393      104.26796
O         45.78678       67.46870      104.39667
H         45.52894       63.13862      104.42929
H         46.09603       64.85108      105.82676
H         44.52170       65.59990      105.42056
N         47.27468       66.06311      103.47757
C         48.02350       67.07993      102.74143
C         47.76215       67.01053      101.23219
O         48.43471       67.70849      100.48599
C         49.51343       67.03322      103.15386
C         50.18594       65.66341      103.04585
N         51.50278       65.66888      103.66032
O         50.28793       65.21579      101.73501
H         47.55842       65.08514      103.35670
H         47.68334       68.10146      103.02147
H         49.55167       67.30552      104.23118
H         50.09749       67.79454      102.59309
H         52.12495       66.33367      103.14733
H         51.89127       64.70910      103.53811
N         46.68140       66.33513      100.73609
C         46.19297       66.46128       99.36898
C         46.87832       65.57866       98.35174
O         46.47142       65.62072       97.20039
H         46.06604       65.84510      101.38986
H         46.22156       67.52785       99.05428
H         45.12415       66.15397       99.35788
N         47.90708       64.75153       98.68070
C         48.56434       63.88534       97.70597
C         49.80016       63.29204       98.33864
O         49.69086       62.60501       99.34170
C         47.64546       62.74196       97.22179
C         48.40382       61.85778       96.25815
C         48.81157       62.35705       95.01029
C         48.75249       60.54589       96.62123
C         49.56190       61.55997       94.14245
C         49.50964       59.75317       95.75444
C         49.91942       60.25956       94.51239
O         50.66066       59.51067       93.67176
H         48.26064       64.76624       99.64771
H         48.87076       64.50900       96.83740
H         46.72712       63.12442       96.73025
H         47.32624       62.15544       98.10781
H         48.55509       63.36639       94.71372
H         48.46119       60.14453       97.58425
H         49.87440       61.95851       93.18568
H         49.78619       58.75023       96.05397
H         50.94310       58.61277       93.89647
N         51.02202       63.55110       97.80933
C         52.24160       63.25979       98.53530
C         52.48956       64.43592       99.45517
O         52.69836       64.21278      100.63888
C         53.41750       62.95017       97.57339
C         53.07991       61.79204       96.59021
C         54.70065       62.62909       98.36737
C         52.71071       60.45465       97.24805
H         51.08220       64.16145       96.98045
H         52.11197       62.35746       99.17243
H         53.62258       63.85265       96.95597
H         53.95428       61.62389       95.92435
H         52.22884       62.09619       95.94395
H         55.54189       62.42101       97.67299
H         54.99672       63.48506       99.00625
H         54.55849       61.75136       99.03155
H         52.51035       59.70093       96.45782
H         53.53534       60.07021       97.88133
H         51.78900       60.54852       97.85854
N         52.37394       65.72517       99.00818
C         52.50558       66.86327       99.91092
C         53.92771       67.02053      100.41242
O         54.12288       67.72592      101.39083
C         51.96742       68.15575       99.28302
O         52.71773       68.50772       98.15532
H         52.12080       65.89757       98.02378
H         51.85927       66.67256      100.78329
H         52.00752       68.97371      100.03729
H         50.90429       67.98764       98.99132
H         52.29305       69.33010       97.79628
N         54.96516       66.37171       99.79992
C         56.35592       66.37736      100.23879
C         56.59762       65.57342      101.51684
O         57.75371       65.43092      101.88929
C         56.90787       67.80708      100.32707
H         54.77702       65.84126       98.93796
H         56.94169       65.85330       99.45008
H         56.74716       68.33132       99.36034
H         56.42270       68.39095      101.13418
H         57.99759       67.78377      100.53449
N         55.58589       64.99042      102.22590
C         55.80767       64.14816      103.39664
C         56.45565       62.83902      103.00314
O         55.92090       62.15215      102.14261
C         54.47771       63.82398      104.08019
H         54.61386       65.13902      101.93561
H         56.42178       64.69729      104.14355
H         54.64811       63.18444      104.97272
H         54.00190       64.76576      104.42029
H         53.79559       63.28828      103.38495
N         57.58570       62.40548      103.63536
C         58.21159       61.10782      103.38726
C         58.77790       60.98748      101.97702
O         59.18485       59.89547      101.60270
C         57.24486       59.94079      103.72433
C         56.74016       60.01550      105.17528
C         55.90765       58.81570      105.52713
O         54.87823       58.57626      104.91625
O         56.29120       58.00180      106.52978
H         58.00312       63.00101      104.36617
H         59.07784       60.99425      104.07635
H         57.79646       58.98237      103.59965
H         56.37803       59.91944      103.03111
H         56.12802       60.93126      105.32124
H         57.61079       60.05968      105.86505
N         58.90071       62.06915      101.15556
C         59.45845       61.96566       99.82576
H         60.48556       61.54479       99.87435
H         58.81586       61.31384       99.19773
H         59.51104       62.97290       99.35985
H         58.62488       63.00512      101.47890
Ca        49.29671       63.23695      101.95120
O         51.12069       62.31518      104.55265
H         51.00350       61.46389      105.04335
H         51.82882       62.79316      105.05202
O         52.09796       61.35066      101.85190
H         52.93491       61.74882      101.50590
H         52.40158       60.67528      102.50872
O         48.38785       60.11841      103.69447
H         48.41700       59.66440      104.57395
H         47.74101       59.58944      103.16331
O         48.32913       63.16900      104.84151
H         48.45649       63.89016      105.50764
H         48.04605       62.38310      105.37110
O         49.68329       59.78925      100.88773
H         48.82342       59.32954      100.71641
H         50.36941       59.18000      100.51602

Ca 1.0



