%chk=apoCaM-CA-Ng.loop2.water2.frame881.chk
%nprocshared=20
%mem=10GB
%nosave
#b3lyp/svp scf=(tight,noincore,xqc) Test 
#IOP(5/87=12) Density=Current Pop=(MK,readradii) iop(6/33=2) iop(6/42=6)

apoCaM-CA-Ng.loop2.water2.frame881 

   -2  1 
C         94.88985       98.08731        3.30008
C         94.61980       99.54793        3.50908
O         93.52672       99.99526        3.19071
H         95.89537       97.80554        3.67647
H         94.13055       97.49391        3.85219
H         94.82946       97.84050        2.21970
N         95.57689      100.36265        4.04013
C         95.33632      101.77384        4.31794
C         94.53305      101.95059        5.61025
O         94.08326      103.05832        5.86922
C         96.68120      102.52444        4.37223
C         96.52446      104.01417        4.49321
O         95.94524      104.64614        3.62360
O         97.04553      104.66178        5.55216
H         96.50292       99.96387        4.25806
H         94.76064      102.19375        3.46013
H         97.24083      102.32224        3.43212
H         97.28001      102.13706        5.22402
N         94.27750      100.89305        6.44321
C         93.38026      100.95773        7.59080
C         93.90800      100.11411        8.76262
O         94.22672       98.95919        8.51453
C         92.04507      100.35841        7.15206
H         94.63886       99.96164        6.19745
H         93.14741      102.00523        7.84461
H         91.63807      100.94202        6.29812
H         92.17277       99.30326        6.82757
H         91.31511      100.40026        7.98752
N         93.95289      100.51490       10.07332
C         93.58401      101.82512       10.58947
C         94.64842      102.36474       11.53359
O         95.52556      101.62574       11.95604
C         92.16901      101.77227       11.22053
C         91.99479      100.94109       12.47780
O         92.30257       99.62927       12.56090
O         91.52900      101.48132       13.46399
H         94.21869       99.79971       10.76666
H         93.53098      102.55098        9.76388
H         91.46317      101.39443       10.45142
H         91.86146      102.81432       11.46450
N         94.65832      103.68464       11.85811
C         95.62882      104.29363       12.75272
C         94.89385      105.14948       13.74750
O         94.98304      106.36363       13.63577
H         93.96708      104.30709       11.41079
H         96.27935      104.95533       12.14037
H         96.28706      103.55632       13.26013
N         94.08795      104.64134       14.71768
C         93.95680      103.23015       15.06081
C         95.22697      102.75155       15.76870
O         95.69574      103.44546       16.65981
C         92.70555      103.07654       15.95691
C         92.31726      101.66079       16.24702
N         91.17358      101.39913       16.90894
O         93.00160      100.73988       15.84806
H         93.53834      105.32250       15.26684
H         93.75274      102.63272       14.14815
H         91.84545      103.51219       15.40097
H         92.82980      103.62772       16.91151
H         90.55851      102.15625       17.23589
H         90.89179      100.42983       17.06377
N         95.82270      101.56665       15.43830
C         97.06513      101.07557       16.03588
C         96.89489       99.81431       16.87498
O         97.89439       99.28431       17.33770
H         95.37364      100.97553       14.72775
H         97.53424      101.84405       16.68481
H         97.77120      100.85711       15.20616
N         95.66605       99.29535       17.13617
C         95.39407       98.10063       17.93117
C         94.65128       97.08531       17.08206
O         94.32455       97.38282       15.94230
C         94.52966       98.49974       19.15985
C         95.34504       99.26484       20.19765
O         93.45111       99.30786       18.75240
H         94.85220       99.77682       16.75744
H         96.33228       97.61395       18.27605
H         94.16103       97.58680       19.68555
H         92.61736       98.79704       18.89712
H         96.16267       98.61684       20.57926
H         95.77874      100.18860       19.76253
H         94.69199       99.54193       21.05351
N         94.32252       95.86210       17.59093
C         93.48112       94.91489       16.86952
C         92.18193       94.83318       17.63005
O         92.18853       94.50903       18.81063
C         94.15658       93.53479       16.65299
C         93.20058       92.65198       15.79710
C         95.51737       93.72841       15.95847
C         93.75973       91.29366       15.38097
H         94.61597       95.62096       18.55047
H         93.26115       95.30650       15.85321
H         94.34418       93.04156       17.63279
H         92.93056       93.19261       14.86619
H         92.26586       92.47226       16.37183
H         96.03962       92.75826       15.83300
H         95.38993       94.20784       14.96449
H         96.18320       94.36251       16.58090
H         94.05963       90.70257       16.26953
H         92.97702       90.73804       14.82049
H         94.62442       91.41714       14.69638
N         91.02624       95.18640       17.00727
C         89.76847       95.40268       17.70384
C         88.74870       94.33732       17.36670
O         87.75136       94.23185       18.06706
C         89.22007       96.78993       17.30769
C         90.27059       97.85172       17.47378
O         90.15038       98.66957       18.37065
O         91.40526       97.80803       16.72210
H         91.05537       95.40192       16.00004
H         89.94592       95.37180       18.80365
H         88.32498       97.01884       17.92609
H         88.90990       96.79134       16.23913
N         88.91570       93.53800       16.27784
C         87.98287       92.50140       15.87223
C         88.43544       91.92449       14.53691
O         89.56620       91.45959       14.45719
C         87.95003       91.32525       16.88352
C         87.13148       90.16414       16.33416
C         87.79139       89.07459       15.73206
C         85.72536       90.18108       16.34990
C         87.06395       88.03389       15.14994
C         84.99986       89.12701       15.77636
C         85.66913       88.05774       15.17397
H         89.72990       93.69729       15.67032
H         86.96669       92.93958       15.79700
H         87.57635       91.62359       17.88536
H         89.00104       90.98844       17.01959
H         88.87246       89.04638       15.68203
H         85.19143       91.01114       16.79416
H         87.58356       87.21338       14.67124
H         83.91755       89.14154       15.78698
H         85.10878       87.24978       14.71992
N         87.57941       91.79603       13.48291
C         87.86775       90.94827       12.34039
C         88.75630       91.58676       11.28532
O         88.88987       90.98893       10.22678
C         86.46706       90.57254       11.85387
C         85.67403       91.83316       12.11480
C         86.19836       92.24604       13.48219
H         88.35580       89.99511       12.64438
H         86.41292       90.15464       10.82809
H         86.07237       89.80035       12.55746
H         85.98996       92.58780       11.36398
H         84.56967       91.70913       12.07916
H         86.08764       93.34286       13.62775
H         85.64862       91.70615       14.27527
N         89.46987       92.72901       11.51234
C         90.41819       93.26991       10.53608
C         91.45210       92.23026       10.12217
O         91.83016       92.21306        8.95923
C         91.07411       94.56226       11.06502
C         92.02021       94.33541       12.25673
C         92.27896       95.63196       12.95435
O         91.24895       96.27173       13.53745
O         93.40389       96.09888       13.02111
H         89.36743       93.21482       12.41421
H         89.83692       93.55626        9.63138
H         90.23896       95.23532       11.35965
H         91.64593       95.07472       10.25868
H         92.96803       93.87534       11.89690
H         91.56350       93.65980       13.00629
N         91.88526       91.28136       11.00424
C         92.77147       90.19366       10.64014
H         93.68992       90.23721       11.26005
H         92.25618       89.22737       10.83129
H         93.06023       90.22003        9.56852
H         91.54991       91.30155       11.97887
Ca        91.89338       98.69221       14.63489
O         89.20181       98.63103       14.29185
H         88.87783       99.56466       14.33976
H         88.86516       98.28241       13.42959
O         94.90487       98.72928       13.60314
H         95.47503       98.09668       13.10201
H         94.84240       99.51872       13.01510

Ca 1.0



