%chk=apoCaM-CA-Ng.loop2.water4.frame590.chk
%nprocshared=20
%mem=10GB
%nosave
#b3lyp/svp scf=(tight,noincore,xqc) Test 
#IOP(5/87=12) Density=Current Pop=(MK,readradii) iop(6/33=2) iop(6/42=6)

apoCaM-CA-Ng.loop2.water4.frame590 

   -2  1 
C         50.41524      116.36412       11.97142
C         49.42885      117.13894       12.79573
O         49.13306      116.71943       13.90562
H         51.38231      116.29677       12.51175
H         50.02481      115.33934       11.79571
H         50.59099      116.84644       10.98693
N         48.86087      118.27911       12.31035
C         47.87172      119.04302       13.05983
C         48.47656      119.60129       14.33411
O         49.39217      120.40884       14.25636
C         47.31366      120.19385       12.19527
C         46.26344      120.98601       12.92630
O         45.14286      120.38204       13.36585
O         46.42343      122.17954       13.12582
H         49.11999      118.59356       11.36207
H         47.02398      118.36380       13.30278
H         46.85609      119.77234       11.27453
H         48.14497      120.86859       11.88977
N         47.97857      119.23216       15.54875
C         48.44418      119.81174       16.80376
C         49.92072      119.52057       17.05314
O         50.42113      118.54486       16.51119
C         47.60660      119.26811       17.96897
H         47.20550      118.54936       15.57377
H         48.26703      120.89698       16.73268
H         47.89999      119.71161       18.93847
H         46.53426      119.50260       17.80093
H         47.72659      118.16644       18.04429
N         50.70293      120.28240       17.87929
C         50.26642      121.51370       18.54280
C         49.93935      122.61315       17.53923
O         50.23624      122.46300       16.36054
C         51.34000      122.01399       19.53464
C         52.64974      122.37583       18.88506
O         52.85321      122.19854       17.56442
O         53.53796      122.86571       19.56357
H         51.67069      119.95851       18.03553
H         49.35972      121.29441       19.13580
H         51.52799      121.23672       20.30584
H         50.95347      122.91810       20.05346
N         49.30709      123.75355       17.94315
C         48.96176      124.82244       17.01895
C         47.99797      124.36578       15.94051
O         47.53882      123.23380       15.98558
H         49.06239      123.87257       18.93767
H         49.89216      125.18253       16.54041
H         48.49986      125.66531       17.57735
N         47.63870      125.16728       14.90099
C         48.07527      126.54564       14.70921
C         48.93249      126.69293       13.44835
O         49.28694      127.81713       13.12034
C         46.81030      127.43165       14.60709
C         45.93532      127.32728       15.83566
N         46.38775      127.72454       17.04750
O         44.80054      126.88490       15.73119
H         47.00118      124.77203       14.19040
H         48.68802      126.90870       15.55772
H         46.22089      127.11099       13.71769
H         47.08951      128.49736       14.46497
H         47.33582      128.11141       17.15611
H         45.78421      127.65168       17.88040
N         49.27532      125.62170       12.66885
C         49.89350      125.76325       11.35852
C         51.34450      126.21589       11.29298
O         51.76827      126.47466       10.17553
H         48.97181      124.67449       12.93452
H         49.27302      126.47861       10.77532
H         49.84318      124.78793       10.82724
N         52.18781      126.29530       12.36857
C         53.58704      126.74197       12.22837
C         54.58114      125.60431       12.44066
O         54.17025      124.49475       12.74745
C         53.86672      127.95545       13.14808
C         53.02470      129.16372       12.73354
O         53.59559      127.64286       14.48957
H         51.84482      126.01583       13.30038
H         53.78582      127.07191       11.18630
H         54.92658      128.28259       13.04167
H         54.41409      127.22429       14.86368
H         53.25118      129.43943       11.68047
H         51.94043      128.94478       12.82298
H         53.26820      130.03357       13.37963
N         55.92178      125.81561       12.23432
C         56.93742      124.76431       12.29010
C         57.84602      124.97601       13.48657
O         58.46553      126.02273       13.61470
C         57.80755      124.71887       10.99155
C         58.89431      123.60172       11.10765
C         56.92865      124.49755        9.74881
C         59.90295      123.57066        9.95982
H         56.24438      126.76598       12.00008
H         56.44591      123.77428       12.38400
H         58.32112      125.70058       10.88332
H         58.40866      122.60618       11.19563
H         59.50351      123.76161       12.02191
H         56.16668      125.29899        9.66053
H         57.53808      124.53404        8.82275
H         56.41535      123.51368        9.80285
H         60.42467      124.54827        9.88282
H         60.66239      122.78537       10.16710
H         59.42018      123.32514        8.99421
N         58.02132      123.94884       14.35822
C         58.92438      123.94455       15.49397
C         60.01294      122.89053       15.33978
O         61.13466      123.19610       15.71616
C         58.09682      123.72549       16.76883
C         57.32204      124.98504       17.04977
O         57.92596      126.01714       17.29428
O         55.98268      125.02308       17.00316
H         57.47386      123.09712       14.20946
H         59.45802      124.91705       15.59695
H         58.75653      123.53419       17.64198
H         57.43089      122.84204       16.63995
N         59.77775      121.64219       14.82751
C         60.80834      120.60148       14.73717
C         60.18136      119.28365       14.27269
O         60.57462      118.76351       13.23532
C         62.00774      121.04595       13.83880
C         63.19470      120.09960       13.89319
C         63.77004      119.74091       15.12956
C         63.76963      119.60034       12.70982
C         64.87836      118.89170       15.17999
C         64.89170      118.76325       12.76594
C         65.44171      118.40592       13.99972
H         58.82502      121.40673       14.52276
H         61.20128      120.43878       15.75870
H         62.41049      122.01144       14.19082
H         61.66330      121.20597       12.79280
H         63.36778      120.11274       16.06144
H         63.36562      119.87269       11.74316
H         65.30495      118.61688       16.13657
H         65.34019      118.39392       11.85267
H         66.30790      117.75757       14.04281
N         59.20203      118.66167       15.00565
C         58.60740      117.37300       14.66894
C         57.93343      117.27992       13.30988
O         57.62514      116.16997       12.89904
C         57.54220      117.17529       15.75439
C         58.17032      117.86751       16.93970
C         58.74073      119.12700       16.29881
H         59.42665      116.62177       14.73430
H         56.63767      117.77460       15.49243
H         57.23248      116.12151       15.91768
H         57.49329      118.05857       17.79888
H         59.01900      117.23181       17.28126
H         57.97020      119.90579       16.13707
H         59.54925      119.50781       16.95605
N         57.61963      118.38885       12.57926
C         57.01101      118.29825       11.25794
C         58.05135      117.72851       10.32213
O         57.82423      116.68007        9.73472
C         56.49586      119.65123       10.68503
C         55.28219      120.26994       11.41859
C         55.59800      121.04937       12.66143
O         54.60317      121.62953       13.35321
O         56.74463      121.24191       13.00870
H         57.84263      119.30200       12.97128
H         56.12285      117.62669       11.30538
H         56.11864      119.40584        9.66656
H         57.30191      120.40495       10.55819
H         54.53714      119.47586       11.63997
H         54.80288      121.00387       10.73497
N         59.24453      118.37180       10.17442
C         60.32705      117.88513        9.34836
H         61.21695      117.70771        9.98898
H         60.07066      116.93750        8.83139
H         60.58013      118.65181        8.58740
H         59.40997      119.24720       10.69481
Ca        54.60335      123.29466       16.73093
O         51.84599      122.80099       13.30686
H         51.96147      122.01509       12.71552
H         50.87589      122.99243       13.27873
O         52.85631      120.14053       14.88528
H         51.91074      120.41518       14.97236
H         52.85252      119.16322       15.03929
O         52.48137      125.25501       16.28663
H         52.05797      126.09475       15.97913
H         52.25704      125.20180       17.24990
O         55.51511      120.43298       16.74433
H         55.77504      120.83358       15.87663
H         54.97800      119.63923       16.49904

Ca 1.0



