%chk=apoCaM-CA-Ng.loop4.water5.frame689.chk
%nprocshared=20
%mem=10GB
%nosave
#b3lyp/svp scf=(tight,noincore,xqc) Test 
#IOP(5/87=12) Density=Current Pop=(MK,readradii) iop(6/33=2) iop(6/42=6)

apoCaM-CA-Ng.loop4.water5.frame689 

   -3  1 
C         80.12479       82.03391      102.79957
C         79.92896       82.54694      104.19665
O         80.89575       82.94887      104.82748
H         81.19722       82.06960      102.51118
H         79.76665       80.98821      102.72215
H         79.54253       82.65812      102.09026
N         78.67793       82.57728      104.73664
C         78.35979       83.10284      106.06085
C         78.72331       84.57480      106.14034
O         79.50474       84.97859      106.99179
C         79.00031       82.26807      107.19216
C         78.56491       80.83184      107.14928
O         77.38198       80.54007      107.23067
O         79.48578       79.85669      107.04910
H         77.89189       82.23244      104.16370
H         77.25667       83.04145      106.20174
H         78.68522       82.69043      108.17141
H         80.10779       82.31821      107.13881
N         78.15621       85.44185      105.25796
C         78.40564       86.88264      105.26687
C         77.98792       87.48053      106.61537
O         76.95629       87.06755      107.12656
C         77.69940       87.59712      104.06980
C         76.15129       87.44094      104.10654
C         78.30584       87.09962      102.73998
C         75.42661       88.15013      102.96254
H         77.52015       85.04175      104.55443
H         79.49589       87.01153      105.12447
H         77.93880       88.68196      104.14139
H         75.76844       87.87690      105.05196
H         75.85431       86.37311      104.07474
H         78.09139       86.02518      102.56529
H         77.91918       87.68139      101.87960
H         79.40770       87.24318      102.74630
H         75.68577       87.69840      101.98313
H         74.33038       88.03390      103.09796
H         75.67512       89.23156      102.95498
N         78.73292       88.39519      107.31232
C         79.92390       89.08240      106.81758
C         81.19182       88.57653      107.50219
O         82.27455       88.96391      107.08482
C         79.76880       90.60762      107.00711
C         78.50117       91.14708      106.39157
O         78.55540       91.97745      105.49930
O         77.29784       90.75004      106.85153
H         78.40782       88.65123      108.25894
H         80.04931       88.90856      105.73342
H         80.64635       91.11734      106.55102
H         79.75220       90.85291      108.09123
N         81.13941       87.68547      108.53512
C         82.30153       87.05803      109.13940
C         83.26699       88.02708      109.77742
O         82.85951       88.81530      110.61878
H         80.22774       87.38239      108.90346
H         82.81783       86.43555      108.37807
H         81.94686       86.37524      109.94157
N         84.59547       87.94754      109.47538
C         85.63136       88.73332      110.13636
C         86.44973       89.57602      109.16701
O         87.30370       90.31243      109.64229
C         86.51418       87.79393      111.00027
C         87.03486       86.56654      110.29152
O         86.66942       85.34380      110.72225
O         87.79249       86.65749      109.34399
H         84.90007       87.23977      108.78926
H         85.17635       89.46543      110.83911
H         85.88423       87.43141      111.84073
H         87.36175       88.36111      111.44353
N         86.24462       89.56908      107.81527
C         86.99102       90.43304      106.90845
C         88.47453       90.12095      106.82219
O         89.16723       90.83623      106.11316
H         85.51041       88.97561      107.40451
H         86.85339       91.48823      107.22784
H         86.57397       90.33024      105.88231
N         89.02946       89.05193      107.46839
C         90.42999       88.65336      107.39348
C         90.82836       88.18819      105.99863
O         91.99201       87.86849      105.80499
C         91.36450       89.74076      107.97264
C         90.97800       90.05808      109.43143
C         91.93965       90.97593      110.14204
N         91.70616       91.31217      111.43215
O         92.93194       91.40838      109.57393
H         88.43111       88.45399      108.03649
H         90.57021       87.75793      108.04116
H         91.34526       90.66833      107.36228
H         92.40330       89.34265      107.96176
H         90.94012       89.10979      110.01026
H         89.97095       90.52505      109.44907
H         90.87490       90.95268      111.92529
H         92.35633       91.92789      111.94222
N         89.90266       88.05209      105.00102
C         90.21174       87.54826      103.66996
C         89.47199       86.24984      103.37412
O         89.74581       85.67796      102.32514
C         89.86763       88.61936      102.59287
C         88.37053       88.99468      102.57709
C         90.71682       89.88194      102.78556
H         88.92224       88.28374      105.18409
H         91.29591       87.31302      103.59424
H         90.11976       88.19960      101.59354
H         88.05603       89.47615      103.52636
H         88.16529       89.71245      101.75549
H         87.73917       88.09771      102.40699
H         90.50549       90.35843      103.76578
H         91.79624       89.62654      102.73668
H         90.49670       90.61691      101.98218
N         88.49980       85.74241      104.19558
C         87.72562       84.55416      103.85856
C         87.77682       83.54268      105.00081
O         88.12960       83.90122      106.11800
C         86.29111       85.02216      103.51348
C         85.44133       84.02140      102.76484
N         85.02195       84.29444      101.50331
O         85.10618       82.97529      103.29692
H         88.23033       86.24197      105.05486
H         88.15913       84.08177      102.94945
H         86.39813       85.90898      102.85076
H         85.76676       85.36592      104.43113
H         85.27943       85.17670      101.03472
H         84.43370       83.62507      100.98593
N         87.50228       82.23419      104.76534
C         87.54257       81.18424      105.78265
C         87.42668       79.84421      105.09620
O         86.47531       79.65083      104.35158
C         86.40171       81.33962      106.82356
C         86.33240       80.13244      107.74679
C         85.17522       79.33174      107.77743
C         87.42981       79.77078      108.54944
C         85.12397       78.18798      108.58017
C         87.37751       78.62121      109.34621
C         86.22916       77.82328      109.36026
O         86.20116       76.70944      110.12053
H         87.30054       81.96611      103.78909
H         88.51912       81.21820      106.31331
H         85.43606       81.44288      106.28068
H         86.54970       82.26170      107.42448
H         84.31427       79.58195      107.17037
H         88.33351       80.36568      108.54550
H         84.22807       77.58052      108.58775
H         88.23502       78.34433      109.94681
H         85.43394       76.11932      110.14286
N         88.34624       78.86150      105.32677
C         88.28999       77.56725      104.66977
C         87.94720       76.48992      105.69278
O         88.81719       76.13813      106.47792
C         89.63731       77.28501      103.97779
C         89.62204       75.98185      103.16849
C         90.98793       75.68994      102.61929
O         92.02102       75.48599      103.46027
O         91.16759       75.61952      101.41453
H         89.10079       79.02838      106.01126
H         87.52908       77.60015      103.87961
H         90.43192       77.23825      104.75615
H         89.88275       78.12638      103.29197
H         88.88274       76.07755      102.34252
H         89.32529       75.12604      103.81011
N         86.69994       75.94125      105.81387
C         85.52459       76.40683      105.08669
C         85.57195       76.06738      103.60731
O         85.74883       74.90876      103.25691
C         84.21995       75.84936      105.69571
C         83.02913       76.61232      105.08997
C         81.70351       76.24348      105.66427
O         80.96258       77.20913      106.23812
O         81.25178       75.11877      105.52367
H         86.56219       75.23656      106.55612
H         85.46760       77.50492      105.24027
H         84.22509       76.03092      106.79080
H         84.13393       74.75321      105.52526
H         82.97896       76.44640      103.99382
H         83.18103       77.70063      105.26864
N         85.34809       77.04293      102.68304
C         85.31594       76.78168      101.26320
H         85.08170       77.72066      100.71620
H         86.30211       76.40418      100.92337
H         84.52463       76.03641      101.03473
H         85.15814       78.00524      102.99721
Ca        78.73828       77.03458      106.50320
O         77.62945       77.51013      109.12202
H         78.16882       77.94657      109.82778
H         77.81763       76.54326      109.22583
O         75.81084       77.14331      106.23389
H         75.73492       76.21543      105.89635
H         75.03435       77.25500      106.83741
O         80.46227       79.19463      104.38105
H         80.62611       78.71824      103.52933
H         81.33436       79.60384      104.61037
O         78.26187       74.25733      107.13931
H         78.08653       74.23925      106.16467
H         79.21428       74.51814      107.21511
O         78.81891       76.20318      103.49563
H         78.64398       75.22884      103.51324
H         79.78814       76.27717      103.30781

Ca 1.0



