%chk=apoCaM-CA-Ng.loop1.water1.frame834.chk
%nprocshared=20
%mem=10GB
%nosave
#b3lyp/svp scf=(tight,noincore,xqc) Test 
#IOP(5/87=12) Density=Current Pop=(MK,readradii) iop(6/33=2) iop(6/42=6)

apoCaM-CA-Ng.loop1.water1.frame834 

   0  1 
C         40.56873       77.24819      105.66182
C         39.44130       77.14906      104.68621
O         39.18333       76.06637      104.17756
H         41.32399       77.96281      105.27052
H         40.18685       77.61015      106.63752
H         41.05286       76.25815      105.79867
N         38.73023       78.26286      104.35558
C         37.66631       78.24295      103.35552
C         38.19625       77.74745      102.00742
O         39.40193       77.62276      101.83553
C         36.98107       79.62248      103.25351
C         37.93104       80.71899      102.86701
O         39.23549       80.45464      102.65981
O         37.50331       81.84287      102.65569
H         38.96728       79.14792      104.83028
H         36.90166       77.51078      103.69572
H         36.51438       79.88333      104.22775
H         36.17502       79.57114      102.48879
N         37.33030       77.31843      101.04960
C         37.77849       76.46976       99.94714
C         38.33819       77.22481       98.75393
O         38.70936       76.53917       97.80889
C         36.65986       75.48543       99.51977
C         36.24108       74.57357      100.69481
C         35.17903       73.52448      100.33403
C         35.69579       72.43475       99.37989
N         34.67244       71.41221       99.16073
H         36.32137       77.38102      101.25323
H         38.60199       75.81198      100.31134
H         37.05647       74.84287       98.70533
H         35.78151       76.04414       99.13061
H         35.81523       75.20248      101.50305
H         37.13194       74.04959      101.10702
H         34.28400       74.02489       99.90541
H         34.87762       73.02514      101.28097
H         36.59508       71.95336       99.82596
H         35.98213       72.87520       98.40170
H         35.05385       70.67347       98.52667
H         34.40615       70.96799      100.06993
H         33.82712       71.83888       98.71693
N         38.50023       78.58801       98.71005
C         39.10591       79.23223       97.54131
C         40.59400       79.46116       97.75024
O         41.02109       79.46740       98.89390
C         38.28840       80.43899       97.02939
C         38.22895       81.76515       97.76568
O         37.55571       82.64274       97.25094
O         38.88376       82.09361       98.89825
H         38.26584       79.16337       99.53118
H         39.04239       78.50951       96.71163
H         37.24459       80.08449       96.88830
H         38.67686       80.70155       96.02653
N         41.50203       79.55860       96.73233
C         41.23942       79.46346       95.30322
C         40.71640       78.10580       94.88863
O         41.32976       77.10440       95.23157
H         42.49171       79.68770       96.99810
H         42.20816       79.59552       94.77275
H         40.57730       80.28375       94.96730
N         39.61817       78.00905       94.08175
C         39.10729       76.74281       93.56371
C         39.49397       76.61127       92.10442
O         39.76114       77.61457       91.45541
C         37.57778       76.67962       93.74806
C         36.98014       75.39236       93.24702
O         37.33784       74.21798       93.80022
O         36.16265       75.40716       92.33994
H         39.17489       78.87942       93.74923
H         39.58133       75.89576       94.10799
H         37.11780       77.53303       93.20020
H         37.32816       76.78587       94.82495
N         39.63425       75.37524       91.54606
C         40.13162       75.17372       90.19906
C         41.51441       75.75449       90.08273
O         41.72902       76.62025       89.24508
H         39.43025       74.53750       92.11107
H         39.44181       75.64507       89.46498
H         40.18328       74.08493       89.98168
N         42.50330       75.33975       90.92666
C         43.84497       75.90994       90.88753
C         43.82808       77.39450       91.21951
O         42.81043       77.92200       91.65049
C         44.82214       75.15436       91.82760
C         44.47240       75.31063       93.31758
O         44.82989       73.79413       91.47910
H         42.28731       74.58956       91.59980
H         44.21980       75.78940       89.84576
H         45.84210       75.57486       91.66684
H         45.63557       73.39233       91.89781
H         45.22016       74.76803       93.93380
H         44.49981       76.37892       93.61901
H         43.46792       74.89980       93.54418
N         44.94467       78.13265       90.99699
C         45.03596       79.56720       91.23257
C         45.03834       80.26304       89.88383
O         44.27991       81.20213       89.69436
C         46.31351       79.92500       92.04810
C         46.47739       78.99692       93.27965
C         46.25439       81.41005       92.47141
C         47.77107       79.24404       94.05943
H         45.76128       77.65047       90.59377
H         44.15316       79.92167       91.81355
H         47.20202       79.76697       91.39642
H         46.52952       77.94476       92.92732
H         45.60554       79.09239       93.96195
H         46.13920       82.07408       91.59012
H         45.39314       81.58120       93.15483
H         47.18178       81.72636       92.98794
H         47.86851       78.48333       94.86193
H         48.65012       79.15869       93.38465
H         47.77100       80.24203       94.54106
N         45.81825       79.78184       88.87058
C         45.85156       80.34262       87.52825
C         47.30021       80.54395       87.11802
O         48.19469       80.07603       87.80877
C         45.14544       79.36805       86.54964
C         43.68564       79.12273       86.95455
O         45.17139       79.88914       85.24589
H         46.38593       78.93990       89.03030
H         45.32851       81.32393       87.50948
H         45.69350       78.39574       86.57742
H         45.03110       79.12526       84.62679
H         43.21064       78.41541       86.24236
H         43.62310       78.67383       87.96807
H         43.11655       80.07666       86.94346
N         47.60590       81.26021       86.00208
C         48.97585       81.45856       85.55638
C         49.41865       82.83614       85.98461
O         50.38510       82.92318       86.73229
C         49.09925       81.16741       84.04058
C         50.55466       81.20434       83.57084
O         48.35159       82.08107       83.27926
H         46.84615       81.73306       85.49266
H         49.64933       80.73094       86.06425
H         48.73973       80.12699       83.85151
H         47.44315       81.69769       83.16593
H         50.99372       82.21293       83.72013
H         51.15767       80.45834       84.13218
H         50.60556       80.94912       82.49077
N         48.73485       83.95307       85.60633
C         49.08143       85.28444       86.08774
C         47.91579       85.90400       86.84110
O         46.82844       85.33935       86.84933
C         49.57916       86.14764       84.91181
C         48.48639       86.53419       83.89673
C         49.05878       87.13449       82.60044
C         49.98650       88.34037       82.81647
N         50.44250       88.87704       81.53421
H         47.92358       83.85374       84.97869
H         49.92678       85.21224       86.80625
H         50.38060       85.57064       84.39940
H         50.02977       87.08054       85.31224
H         47.78852       87.25413       84.37784
H         47.90289       85.64102       83.59222
H         48.20278       87.43720       81.95820
H         49.62915       86.34472       82.06395
H         50.87782       88.02384       83.40106
H         49.45321       89.13481       83.38242
H         51.11338       89.65970       81.70854
H         50.93004       88.13325       80.98272
H         49.62811       89.24205       80.98919
N         48.08538       87.06912       87.52200
C         47.01160       87.73334       88.25681
C         46.38894       86.82890       89.32238
O         45.18658       86.62288       89.23480
C         47.48271       89.07859       88.86023
C         47.83095       90.09779       87.75837
C         48.31693       91.41213       88.30627
O         48.60462       92.31248       87.53421
O         48.45103       91.61173       89.63255
H         49.02368       87.49784       87.51281
H         46.20010       87.98520       87.53535
H         48.35738       88.93074       89.52454
H         46.65805       89.50982       89.47031
H         46.92084       90.28598       87.14754
H         48.62254       89.69548       87.09316
N         47.06247       86.23985       90.35525
C         48.48499       86.30925       90.60918
H         49.04143       86.88337       89.85290
H         48.65603       86.76527       91.60676
H         48.89818       85.27872       90.61521
H         46.51485       85.66963       91.01957
Ca        39.86376       81.16401      100.66830
O         42.28116       78.44991      101.59785
H         42.05057       77.82724      100.86318
H         42.99826       77.98592      102.09826

Ca 1.0



