%chk=apoCaM-CA-Ng.loop3.water4.frame155.chk
%nprocshared=20
%mem=10GB
%nosave
#b3lyp/svp scf=(tight,noincore,xqc) Test 
#IOP(5/87=12) Density=Current Pop=(MK,readradii) iop(6/33=2) iop(6/42=6)

apoCaM-CA-Ng.loop3.water4.frame155 

   0  1 
C         54.52294       46.28323       70.77161
C         54.65087       45.07510       71.65315
O         53.85917       44.15475       71.51629
H         55.45532       46.41406       70.18206
H         53.67230       46.16958       70.06489
H         54.35447       47.18707       71.39275
N         55.65258       45.00939       72.57910
C         55.90507       43.86340       73.45410
C         54.79585       43.65129       74.49735
O         54.80217       42.62971       75.16825
C         56.19758       42.60622       72.59373
C         56.85528       41.46926       73.33854
O         57.19999       41.57907       74.63689
O         57.12248       40.44061       72.73909
H         56.30455       45.80670       72.64353
H         56.83813       44.08303       74.01946
H         56.90561       42.89118       71.78433
H         55.26171       42.23918       72.12443
N         53.86295       44.61374       74.75556
C         52.82497       44.49981       75.78323
C         51.43864       44.72623       75.20389
O         50.49407       44.89554       75.96277
C         53.09534       45.55385       76.87285
C         54.40574       45.25636       77.60478
C         54.60605       46.21377       78.78332
C         55.88750       45.91479       79.57765
N         55.87939       44.57173       80.16521
H         53.90777       45.50742       74.24294
H         52.82120       43.50130       76.27297
H         52.27489       45.50975       77.62319
H         53.11451       46.57685       76.43365
H         55.26589       45.33551       76.90482
H         54.34070       44.21611       77.98425
H         53.73442       46.14293       79.47072
H         54.66087       47.25585       78.39851
H         55.96030       46.66426       80.39606
H         56.77832       46.03118       78.92199
H         55.00908       44.42404       80.72651
H         55.95398       43.84058       79.42271
H         56.70817       44.46982       80.79319
N         51.24546       44.75979       73.86164
C         50.00152       45.16701       73.23493
C         48.82270       44.28738       73.66451
O         48.85200       43.08788       73.42660
C         50.23681       45.15508       71.71924
C         49.13293       45.80325       70.99845
O         49.35583       46.87217       70.22271
O         48.00734       45.35120       71.08326
H         52.04006       44.54149       73.24725
H         49.80933       46.21929       73.54369
H         50.36794       44.11167       71.35489
H         51.16247       45.72469       71.47991
N         47.77568       44.82819       74.36285
C         46.71075       44.02921       74.95857
C         45.67374       43.46732       74.00374
O         44.92538       42.60620       74.44396
H         47.80216       45.83160       74.59678
H         46.15604       44.63867       75.70426
H         47.18527       43.19335       75.51776
N         45.52475       43.90771       72.72042
C         44.56015       43.32256       71.78356
C         45.26529       42.66527       70.60017
O         44.59095       42.15395       69.71702
C         43.49587       44.35898       71.35383
C         43.97783       45.43498       70.41329
N         43.38597       45.59774       69.20696
O         44.88436       46.18129       70.74352
H         46.11863       44.67756       72.39318
H         43.98678       42.51505       72.28751
H         43.06889       44.83281       72.26416
H         42.66674       43.80925       70.85606
H         42.60583       44.99522       68.90549
H         43.69875       46.34409       68.57561
N         46.62677       42.59664       70.54489
C         47.37478       41.93664       69.49659
C         47.21873       42.60289       68.15694
O         46.92652       41.91659       67.18839
H         47.19319       42.98759       71.30702
H         47.09763       40.86148       69.44540
H         48.45512       41.99309       69.75899
N         47.45699       43.93724       68.02065
C         47.54565       44.60943       66.73374
C         46.34679       45.57482       66.50849
O         46.06193       46.54848       67.48009
C         48.95979       45.23782       66.60162
C         50.04442       44.18460       66.79836
C         50.15471       43.10122       65.90758
C         50.94326       44.26185       67.88204
C         51.12853       42.11489       66.09984
C         51.91653       43.27130       68.07308
C         52.00922       42.19218       67.18248
O         52.93471       41.22530       67.35551
H         47.65795       44.48741       68.86209
H         47.44988       43.86708       65.91371
H         49.08346       46.03387       67.36114
H         49.08610       45.70849       65.60364
H         49.48339       43.01467       65.06403
H         50.88903       45.07987       68.58807
H         51.19554       41.28481       65.40738
H         52.59537       43.33958       68.91503
H         53.55956       41.23126       68.09489
N         46.35881       46.18357       65.16888
C         45.36436       47.27412       65.03444
C         43.96139       46.78815       65.40083
O         43.41137       47.32338       66.34965
C         45.46501       47.96113       63.64948
C         46.92754       48.37207       63.30946
C         44.54755       49.19939       63.57850
C         47.57741       49.36740       64.28438
H         46.17662       45.43554       64.46095
H         45.62970       48.07528       65.75923
H         45.13756       47.23642       62.87240
H         46.94285       48.82242       62.29366
H         47.56558       47.46339       63.27428
H         44.81143       49.94866       64.35284
H         44.61534       49.67274       62.57705
H         43.49482       48.93564       63.75036
H         48.60836       49.59585       63.94318
H         47.01977       50.32497       64.32282
H         47.65078       48.94369       65.30671
N         43.34204       45.75276       64.75688
C         42.04017       45.23904       65.20597
C         40.90948       46.25389       65.06668
O         39.85743       46.04518       65.65446
C         41.65776       43.94152       64.47830
O         41.41198       44.17530       63.11665
H         43.83929       45.28491       63.98576
H         42.15119       44.99233       66.28653
H         40.73151       43.52431       64.92995
H         42.44788       43.16801       64.61179
H         42.29234       44.19647       62.66147
N         41.06572       47.38044       64.31757
C         40.10280       48.46654       64.21089
C         39.81071       49.05957       65.57912
O         38.65649       49.28267       65.91858
C         38.84311       48.02872       63.45235
H         41.94118       47.50360       63.80099
H         40.58397       49.26918       63.60778
H         38.16280       48.89559       63.31054
H         39.12634       47.64252       62.45011
H         38.29744       47.23374       64.00078
N         40.84269       49.30862       66.43369
C         40.68294       49.90728       67.75098
C         41.70778       51.00791       67.94653
O         42.62685       51.12801       67.14668
C         40.83984       48.83543       68.83135
H         41.78924       49.03889       66.14080
H         39.66516       50.34587       67.84376
H         40.69999       49.27389       69.84219
H         40.07076       48.04623       68.68657
H         41.84315       48.36390       68.77644
N         41.58140       51.88806       68.98143
C         42.50246       52.99508       69.23762
C         42.58972       53.99741       68.08119
O         43.37418       54.93032       68.19345
C         43.91662       52.47870       69.60257
C         43.90507       51.51893       70.80163
C         45.30654       51.15371       71.20374
O         46.16306       52.11067       71.61095
O         45.67218       49.99017       71.17971
H         40.78043       51.78028       69.62226
H         42.13039       53.55535       70.12460
H         44.54447       53.35857       69.86738
H         44.39076       51.97646       68.73429
H         43.33685       50.60006       70.53673
H         43.41089       52.00283       71.67083
N         41.83709       53.89255       66.94565
C         41.99712       54.80207       65.83284
H         43.03519       54.73465       65.44102
H         41.29793       54.52456       65.01481
H         41.78379       55.84243       66.15306
H         41.13057       53.15480       66.83807
Ca        47.53745       47.07568       69.03417
O         48.48285       49.81646       67.91148
H         49.21147       49.17035       67.73111
H         48.73731       50.24559       68.76675
O         46.21982       47.56366       72.80766
H         46.73502       47.95984       73.55335
H         45.30950       47.43229       73.17482
O         45.17918       49.12887       68.45354
H         45.06266       49.84988       67.78653
H         44.26739       48.77318       68.59779
O         48.80556       49.26871       71.87175
H         48.37778       49.85523       72.54475
H         49.55244       48.83622       72.35741

Ca 1.0



