%chk=apoCaM-CA-Ng.loop3.water5.frame278.chk
%nprocshared=20
%mem=10GB
%nosave
#b3lyp/svp scf=(tight,noincore,xqc) Test 
#IOP(5/87=12) Density=Current Pop=(MK,readradii) iop(6/33=2) iop(6/42=6)

apoCaM-CA-Ng.loop3.water5.frame278 

   0  1 
C         35.62129       23.50847        8.90461
C         35.42837       22.79386        7.60073
O         34.34749       22.27047        7.37838
H         36.64695       23.92368        8.99218
H         34.88841       24.33685        8.99071
H         35.46168       22.79254        9.73923
N         36.44800       22.71209        6.69470
C         36.37274       21.98336        5.43066
C         36.21647       20.47443        5.65252
O         35.97337       19.75237        4.69529
C         35.28551       22.59436        4.51562
C         35.42305       22.11746        3.09308
O         34.50983       21.52595        2.54470
O         36.55774       22.35948        2.40890
H         37.34193       23.17666        6.91541
H         37.34339       22.12763        4.90550
H         35.41208       23.69861        4.49238
H         34.27158       22.36926        4.90826
N         36.43654       19.91686        6.88267
C         36.38605       18.47927        7.13861
C         34.95347       17.94706        7.13122
O         34.77388       16.73868        7.18751
C         37.05379       18.21294        8.50966
C         37.45923       16.76789        8.84083
C         38.53941       16.23932        7.87528
C         39.22491       14.95079        8.36243
N         40.05744       15.18286        9.54856
H         36.73803       20.52612        7.65526
H         36.98824       17.99118        6.34280
H         36.38775       18.60611        9.30973
H         37.99857       18.79973        8.55364
H         36.58945       16.07834        8.87113
H         37.87688       16.82387        9.86483
H         39.33457       17.00294        7.72856
H         38.06518       16.04249        6.89032
H         39.88793       14.59120        7.54423
H         38.47086       14.16015        8.56702
H         39.48051       15.45008       10.37578
H         40.56979       14.30316        9.78480
H         40.76185       15.93216        9.35333
N         33.88086       18.79560        7.10229
C         32.48915       18.35210        7.11236
C         32.18815       17.49331        5.88358
O         32.95263       17.50101        4.92772
C         31.57087       19.60680        7.26166
C         30.12262       19.37925        6.96332
O         29.82366       19.09917        5.82173
O         29.12490       19.53796        7.85548
H         34.05337       19.80743        7.10007
H         32.33452       17.70604        8.00439
H         31.89339       20.38618        6.53352
H         31.70270       20.02674        8.28202
N         31.11038       16.65380        5.89091
C         30.80090       15.74209        4.80240
C         30.41910       16.48770        3.54790
O         31.09749       16.35809        2.53926
H         30.50765       16.62166        6.72785
H         29.94125       15.09815        5.09395
H         31.67436       15.07798        4.62406
N         29.30584       17.27233        3.54180
C         28.82670       17.99918        2.36526
C         29.60004       19.31206        2.12961
O         29.27769       20.03006        1.19487
C         27.27734       18.16910        2.46499
C         26.74416       19.26509        3.41742
N         26.53627       20.50987        2.68589
O         27.68789       19.49080        4.41125
H         28.73793       17.28161        4.39949
H         28.96558       17.33379        1.48441
H         26.86578       17.18938        2.79495
H         26.85057       18.34011        1.45315
H         25.82864       20.34379        1.93420
H         26.11111       21.20252        3.33935
N         30.65377       19.66575        2.92969
C         31.47866       20.85980        2.79727
C         30.79383       22.14123        3.21351
O         29.58180       22.16046        3.37078
H         30.95120       19.02578        3.67308
H         31.91859       20.94252        1.78132
H         32.31299       20.73779        3.52262
N         31.54885       23.25169        3.48297
C         30.98579       24.49351        4.01826
C         30.33375       24.22740        5.37309
O         30.51120       23.16138        5.93645
C         32.04551       25.61873        4.20163
C         32.59243       26.22816        2.92266
C         33.47826       25.53422        2.07771
C         32.23698       27.55003        2.58397
C         33.98404       26.14239        0.92400
C         32.74064       28.15309        1.42865
C         33.61499       27.45338        0.59479
O         34.09796       28.05149       -0.51292
H         32.56374       23.18201        3.35466
H         30.19891       24.85049        3.31804
H         32.88174       25.27769        4.85061
H         31.54778       26.44336        4.75570
H         33.80713       24.53524        2.30303
H         31.56560       28.12152        3.21337
H         34.66958       25.59450        0.28997
H         32.45343       29.16856        1.18474
H         34.71027       27.60423       -1.11428
N         29.52843       25.18002        5.93085
C         28.77275       24.97306        7.16423
C         27.29838       25.02516        6.81184
O         26.58670       24.06607        7.08407
C         29.14030       26.02701        8.24924
C         30.66898       26.01603        8.51235
C         28.35371       25.72846        9.54680
C         31.12720       27.04154        9.55258
H         29.40450       26.06903        5.42971
H         28.99667       23.97302        7.59579
H         28.85577       27.03925        7.88618
H         31.19646       26.25831        7.56466
H         30.99333       25.00452        8.84092
H         27.26073       25.72078        9.36337
H         28.64353       24.73777        9.95854
H         28.53159       26.50375       10.31765
H         32.23421       27.01434        9.63298
H         30.81608       28.06454        9.25300
H         30.71919       26.80932       10.55720
N         26.76998       26.10117        6.17033
C         25.37234       26.16970        5.77215
C         24.45685       26.20398        6.97675
O         23.35110       25.69333        6.88051
C         25.11193       27.40631        4.90278
O         25.91147       27.34188        3.75051
H         27.38999       26.89046        5.92728
H         25.12917       25.27861        5.14795
H         25.33933       28.32277        5.49715
H         24.04378       27.43480        4.59386
H         26.16409       28.27266        3.51841
N         24.84541       26.81713        8.13672
C         23.98079       26.97439        9.30170
C         23.50591       25.65334        9.89190
O         22.61794       25.69787       10.73718
C         22.79495       27.88219        8.93960
H         25.78588       27.23283        8.19429
H         24.54317       27.51077       10.09828
H         22.18517       28.09612        9.84333
H         23.17302       28.85079        8.54818
H         22.13559       27.42082        8.17746
N         24.05885       24.44907        9.55640
C         23.55964       23.18412       10.08156
C         24.50600       22.59221       11.09899
O         25.61977       23.07889       11.25683
C         23.31066       22.20540        8.93080
H         24.87797       24.41900        8.93213
H         22.59811       23.35098       10.61444
H         22.89476       21.24679        9.30556
H         22.59220       22.64380        8.20639
H         24.26467       21.99270        8.40099
N         24.07014       21.57442       11.89808
C         24.84313       20.95470       12.97121
C         25.21423       21.92442       14.09571
O         25.87733       21.48417       15.02525
C         26.09141       20.23699       12.41125
C         25.70800       19.16590       11.37837
C         26.91865       18.42852       10.88629
O         27.19829       18.43124        9.69902
O         27.69061       17.74107       11.74972
H         23.11221       21.21713       11.75251
H         24.20982       20.16956       13.44290
H         26.61956       19.73592       13.25274
H         26.79169       20.96804       11.95853
H         25.19029       19.64449       10.51874
H         25.01579       18.43000       11.84160
N         24.81375       23.23210       14.11181
C         25.17354       24.16527       15.16071
H         25.73417       25.01443       14.71578
H         24.25067       24.55655       15.63717
H         25.80753       23.70345       15.94577
H         24.21881       23.61180       13.36567
Ca        27.19667       19.45501        6.64959
O         27.81107       22.08701        5.79449
H         27.52815       22.30672        4.87315
H         28.62769       21.54169        5.68938
O         24.37327       18.78302        7.74094
H         24.40168       18.23073        8.56199
H         23.64262       18.38833        7.20201
O         24.81424       21.41959        5.74576
H         24.99040       22.29142        5.31089
H         23.83094       21.39210        5.85400
O         27.08413       16.46118        6.55892
H         26.18670       16.33331        6.95602
H         26.90489       16.58924        5.59428
O         27.19315       21.67350        9.06945
H         27.49996       22.61356        9.07209
H         27.75168       21.23669        9.75931

Ca 1.0



