%chk=apoCaM-CA-Ng.loop1.water3.frame1141.chk
%nprocshared=20
%mem=10GB
%nosave
#b3lyp/svp scf=(tight,noincore,xqc) Test 
#IOP(5/87=12) Density=Current Pop=(MK,readradii) iop(6/33=2) iop(6/42=6)

apoCaM-CA-Ng.loop1.water3.frame1141 

   0  1 
C         66.94443       42.09918       78.00635
C         68.40292       41.76592       77.95719
O         69.19715       42.62906       78.29635
H         66.31859       41.23651       77.70127
H         66.67272       42.39720       79.04058
H         66.74131       42.95012       77.32097
N         68.83643       40.55224       77.50141
C         70.25308       40.20794       77.39181
C         70.70109       40.30256       75.94967
O         71.29587       39.38262       75.40453
C         70.57636       38.86876       78.09530
C         69.87567       37.64410       77.55596
O         69.11256       37.70538       76.60511
O         70.10441       36.45200       78.13855
H         68.13352       39.88148       77.16115
H         70.86256       40.97526       77.90483
H         70.31043       38.97112       79.16886
H         71.67234       38.69080       78.03151
N         70.45261       41.46135       75.28442
C         70.92383       41.76250       73.94599
C         72.42353       42.03698       73.98338
O         73.12445       41.34850       73.25561
C         70.05844       42.87892       73.31382
C         68.60986       42.36036       73.15563
C         67.63865       43.42881       72.65382
C         66.23120       42.82957       72.49002
N         65.26596       43.85037       72.08790
H         69.90283       42.18494       75.76818
H         70.75571       40.87849       73.28707
H         70.45047       43.14123       72.30703
H         70.06580       43.79532       73.93501
H         68.22507       41.99931       74.13417
H         68.61358       41.50079       72.44795
H         67.98551       43.83243       71.67856
H         67.60370       44.25439       73.39774
H         65.89767       42.37874       73.45210
H         66.25902       42.02394       71.72179
H         64.32749       43.40452       71.96810
H         65.19711       44.58522       72.82908
H         65.55528       44.28473       71.18204
N         73.05060       42.92315       74.82332
C         72.43583       43.81897       75.80570
C         72.60806       43.29270       77.22008
O         73.19638       42.23759       77.41193
C         72.93615       45.26800       75.59252
C         74.42807       45.41048       75.39882
O         75.35401       45.32328       76.38287
O         74.82491       45.66181       74.27154
H         74.08249       42.91758       74.79611
H         71.34369       43.85442       75.67955
H         72.56236       45.97069       76.36148
H         72.47054       45.58916       74.63283
N         71.99394       43.93732       78.25424
C         71.87884       43.40412       79.60571
C         73.18301       43.18692       80.32061
O         74.23379       43.42880       79.76418
H         71.49053       44.81646       78.06011
H         71.35038       42.43154       79.57540
H         71.26577       44.10660       80.21063
N         73.15887       42.73164       81.60366
C         74.34527       42.47026       82.42417
C         73.92298       42.22423       83.86948
O         72.92140       41.55372       84.07889
C         75.13911       41.22406       81.96156
C         75.81181       41.37264       80.63117
O         76.72916       42.34210       80.44393
O         75.54793       40.60410       79.72081
H         72.22565       42.60496       82.02496
H         75.00192       43.35557       82.38602
H         74.46589       40.33911       81.95628
H         75.95465       41.02928       82.69152
N         74.65814       42.63398       84.94410
C         75.93849       43.31717       84.88547
C         75.82271       44.74267       84.41420
O         75.09727       45.50722       85.03465
H         74.31633       42.37248       85.88259
H         76.65450       42.72920       84.27325
H         76.35378       43.36538       85.91577
N         76.56196       45.18413       83.35454
C         76.58918       46.57718       82.92743
C         76.04753       46.73909       81.47880
O         76.78775       45.94417       80.58428
C         78.01178       47.19235       83.15323
C         79.17046       46.51142       82.40357
O         78.30283       47.24008       84.52835
H         77.16636       44.51200       82.85805
H         75.90529       47.18131       83.56254
H         77.99014       48.24702       82.80492
H         78.41857       46.30885       84.85053
H         79.29494       45.45646       82.72535
H         79.02306       46.55076       81.30942
H         80.11817       47.04855       82.62374
N         76.08304       48.17997       81.12970
C         75.48307       48.58014       79.84535
C         76.49593       48.47797       78.70779
O         77.09192       47.44188       78.47576
C         74.08420       47.92496       79.55704
C         72.97336       48.38988       80.53926
C         73.63646       48.15555       78.10040
C         72.56357       49.86537       80.41379
H         75.56301       48.69480       81.87889
H         75.27553       49.66613       79.91182
H         74.15110       46.83441       79.69147
H         73.28483       48.18551       81.58460
H         72.06191       47.78204       80.34470
H         72.63926       47.69999       77.93002
H         73.59189       49.23556       77.85314
H         74.34745       47.67756       77.39539
H         71.74766       50.08228       81.13367
H         73.40351       50.55109       80.63775
H         72.17174       50.08663       79.39906
N         76.66061       49.54471       77.88189
C         77.40216       49.46702       76.63006
C         78.91829       49.39824       76.78308
O         79.57479       49.28455       75.75678
C         76.98539       50.64731       75.70476
C         77.40394       52.02367       76.24507
O         75.59022       50.64623       75.52913
H         76.09892       50.38673       78.07146
H         77.07877       48.53836       76.10710
H         77.47183       50.52855       74.71022
H         75.35743       49.81604       75.03667
H         78.50617       52.08643       76.35308
H         77.07739       52.81275       75.53495
H         76.93841       52.24551       77.22732
N         79.56003       49.50843       77.98561
C         81.01882       49.59671       78.06083
C         81.68378       48.29547       77.62598
O         81.64332       47.33287       78.37899
C         81.48252       49.98547       79.49602
C         82.99710       50.23137       79.58197
O         80.79634       51.12365       79.95558
H         79.00617       49.62784       78.84625
H         81.32612       50.42101       77.37820
H         81.22941       49.15051       80.18701
H         80.96072       51.85853       79.30952
H         83.56857       49.32952       79.27878
H         83.28815       51.07781       78.92383
H         83.27815       50.48215       80.62695
N         82.33045       48.20438       76.42407
C         83.10656       47.04034       75.99766
C         82.29463       45.75710       76.08821
O         82.60550       44.90086       76.90636
C         84.43181       46.95808       76.78681
C         85.29050       48.21436       76.56287
C         86.66734       48.07279       77.21823
C         87.51546       49.33079       76.98639
N         88.84670       49.17889       77.57183
H         82.29385       49.00861       75.77967
H         83.40692       47.16997       74.93297
H         84.99883       46.07695       76.41072
H         84.24267       46.81874       77.87306
H         84.76723       49.10271       76.97892
H         85.43705       48.36850       75.47044
H         87.18947       47.19610       76.77496
H         86.54665       47.90456       78.31037
H         87.00818       50.20898       77.44473
H         87.61893       49.51676       75.89372
H         89.34640       48.37804       77.12089
H         89.39502       50.05381       77.40711
H         88.77134       49.01350       78.60166
N         81.24593       45.55295       75.24379
C         80.38917       44.36925       75.30437
C         78.93392       44.77980       75.46756
O         78.37068       44.41596       76.48909
C         80.60143       43.39822       74.12051
C         82.03597       42.85153       74.08707
C         82.19583       41.83626       72.99177
O         83.00363       42.02001       72.09556
O         81.45679       40.70974       73.00088
H         81.06896       46.27610       74.53626
H         80.64986       43.76681       76.20541
H         80.37535       43.85221       73.14071
H         79.90548       42.54035       74.26008
H         82.27701       42.36011       75.05474
H         82.74885       43.68992       73.92899
N         78.21048       45.51894       74.57242
C         78.63604       46.04839       73.29316
H         79.67308       45.82215       73.02254
H         77.98333       45.63226       72.49721
H         78.52336       47.15222       73.30325
H         77.23973       45.73581       74.82347
Ca        75.63393       45.31727       78.64280
O         76.37885       42.32028       77.20294
H         76.82530       41.49836       77.52546
H         75.64143       41.98809       76.63402
O         79.28360       42.05327       78.87064
H         80.25092       42.12351       79.06817
H         79.24110       41.90654       77.89265
O         79.13300       45.29185       79.03644
H         79.92494       44.75644       79.29006
H         79.48113       45.97406       78.41003

Ca 1.0



