%chk=apoCaM-CA-Ng.loop2.water5.frame737.chk
%nprocshared=20
%mem=10GB
%nosave
#b3lyp/svp scf=(tight,noincore,xqc) Test 
#IOP(5/87=12) Density=Current Pop=(MK,readradii) iop(6/33=2) iop(6/42=6)

apoCaM-CA-Ng.loop2.water5.frame737 

   -2  1 
C        -10.07964       26.86572       -7.35308
C         -9.63064       27.81354       -8.42504
O        -10.43538       28.62823       -8.84308
H        -11.03402       26.38251       -7.65015
H         -9.32348       26.07567       -7.16598
H        -10.24002       27.43534       -6.41326
N         -8.36030       27.74793       -8.92215
C         -7.79246       28.65591       -9.92229
C         -7.48015       30.00561       -9.26865
O         -6.31874       30.33249       -9.05950
C         -6.51171       27.99894      -10.50106
C         -5.93066       28.70727      -11.69855
O         -6.46433       29.69705      -12.17528
O         -4.81503       28.21770      -12.27165
H         -7.75114       27.00001       -8.55598
H         -8.50122       28.76654      -10.77337
H         -6.76040       26.96746      -10.83145
H         -5.73882       27.92557       -9.70459
N         -8.48989       30.83604       -8.90321
C         -8.32352       32.03627       -8.09963
C         -9.27372       31.97332       -6.91706
O        -10.20761       31.18083       -6.94514
C         -8.65499       33.24780       -8.97512
H         -9.44381       30.61232       -9.20158
H         -7.28446       32.11694       -7.71553
H         -8.72394       34.19105       -8.40451
H         -7.86525       33.36365       -9.74523
H         -9.63372       33.09881       -9.47906
N         -9.16864       32.79683       -5.84122
C         -8.08384       33.75073       -5.58272
C         -6.79758       33.07523       -5.10576
O         -6.74221       31.86022       -4.98611
C         -8.58292       34.82376       -4.57942
C         -9.22881       34.26916       -3.34572
O        -10.39899       34.52929       -3.11791
O         -8.54325       33.47545       -2.50636
H         -9.93416       32.71899       -5.15324
H         -7.82485       34.31465       -6.49251
H         -9.34287       35.43777       -5.10799
H         -7.77034       35.50964       -4.27341
N         -5.72137       33.84502       -4.76891
C         -4.55736       33.32695       -4.06880
C         -3.52427       32.67052       -4.95988
O         -3.69555       32.68363       -6.17052
H         -5.78985       34.86813       -4.86963
H         -4.90251       32.66086       -3.25409
H         -4.04764       34.19489       -3.60901
N         -2.36402       32.13461       -4.45989
C         -2.04252       31.97552       -3.03610
C         -1.48711       30.58716       -2.74931
O         -0.94985       29.93297       -3.63342
C         -1.02761       33.02964       -2.56891
C         -1.64619       34.40008       -2.49354
N         -2.59055       34.67417       -1.55893
O         -1.28330       35.27414       -3.26509
H         -1.65922       31.81333       -5.14256
H         -2.95808       32.07448       -2.41937
H         -0.16082       33.01624       -3.26366
H         -0.65797       32.79389       -1.54643
H         -2.89069       33.95541       -0.88279
H         -3.01502       35.61149       -1.49859
N         -1.64963       30.06076       -1.50537
C         -1.30035       28.68872       -1.16954
C         -1.90516       28.31011        0.16403
O         -1.20857       27.75938        1.00502
H         -2.12786       30.64288       -0.80089
H         -0.19441       28.54548       -1.17568
H         -1.74566       28.01245       -1.92803
N         -3.20972       28.62645        0.43177
C         -3.84658       28.41122        1.72925
C         -5.32933       28.07154        1.57234
O         -5.87248       28.18106        0.48000
C         -3.68696       29.67613        2.61565
C         -2.23145       29.93732        3.02582
O         -4.18639       30.79508        1.92653
H         -3.73363       29.16123       -0.27834
H         -3.37623       27.53681        2.22847
H         -4.26026       29.51944        3.55879
H         -4.55444       31.41944        2.60485
H         -1.56848       30.07034        2.14792
H         -2.17185       30.86674        3.63035
H         -1.85487       29.09538        3.64600
N         -6.03671       27.62777        2.65789
C         -7.45205       27.26580        2.63139
C         -8.21697       28.10747        3.65588
O         -7.96482       27.97022        4.84427
C         -7.63638       25.74478        2.96496
C         -9.14058       25.33871        3.02419
C         -6.85931       24.86382        1.96616
C         -9.40102       23.92976        3.55388
H         -5.53570       27.51048        3.54977
H         -7.85613       27.44854        1.61914
H         -7.20673       25.57476        3.97460
H         -9.60878       25.42360        2.03546
H         -9.68205       26.01636        3.71137
H         -5.78119       25.12680        1.97378
H         -6.92180       23.79362        2.24858
H         -7.24831       24.98519        0.93204
H        -10.49883       23.75819        3.60532
H         -8.97160       23.15126        2.89324
H         -8.98308       23.83055        4.57706
N         -9.19851       28.96541        3.25808
C        -10.09595       29.69784        4.14465
C        -11.57175       29.38883        3.85165
O        -12.40671       30.17414        4.28016
C         -9.80033       31.21469        4.05955
C         -9.64164       31.73165        2.66365
O         -8.40384       31.81165        2.14261
O        -10.58246       32.23158        2.07040
H         -9.32724       29.12855        2.25856
H         -9.93424       29.42628        5.21121
H         -8.83528       31.40513        4.57315
H        -10.55452       31.81805        4.61094
N        -11.99091       28.21774        3.26831
C        -13.40959       27.87693        3.12653
C        -13.78276       27.41232        1.71100
O        -14.18542       26.26836        1.54918
C        -13.78796       26.87414        4.24143
C        -15.28166       26.63553        4.36679
C        -16.17444       27.71694        4.52257
C        -15.79632       25.32714        4.37268
C        -17.54414       27.49315        4.67178
C        -17.16927       25.10831        4.54028
C        -18.04145       26.19016        4.68787
H        -11.29998       27.49676        3.03241
H        -14.02362       28.76965        3.32756
H        -13.46625       27.32050        5.20742
H        -13.22936       25.92008        4.11312
H        -15.82404       28.73937        4.53284
H        -15.13618       24.47539        4.26906
H        -18.21802       28.33312        4.78490
H        -17.55836       24.09892        4.56260
H        -19.10225       26.02085        4.82007
N        -13.76091       28.27243        0.64051
C        -14.24370       27.94409       -0.70908
C        -13.54132       26.76823       -1.38244
O        -14.04743       26.21734       -2.34945
C        -13.89476       29.20377       -1.51745
C        -13.95731       30.30707       -0.48730
C        -13.35239       29.65709        0.74759
H        -15.33728       27.76064       -0.62813
H        -12.82648       29.15237       -1.83048
H        -14.52146       29.36044       -2.42141
H        -13.46908       31.26157       -0.77848
H        -15.03275       30.49513       -0.27970
H        -12.24188       29.69536        0.77628
H        -13.77727       30.17789        1.63078
N        -12.28638       26.45394       -0.98849
C        -11.42185       25.43882       -1.56280
C        -11.99954       24.09387       -1.18000
O        -12.18929       23.24114       -2.03512
C         -9.93973       25.58077       -1.08349
C         -9.34098       27.01595       -1.21276
C         -9.76029       27.95266       -0.11297
O         -9.62244       29.28393       -0.23247
O        -10.18857       27.50197        0.93231
H        -11.94908       26.99074       -0.21401
H        -11.37909       25.57408       -2.66704
H         -9.33311       24.90405       -1.72351
H         -9.80810       25.21714       -0.05381
H         -9.59902       27.44331       -2.20349
H         -8.23371       26.97630       -1.13349
N        -12.40252       23.89259        0.10907
C        -13.12640       22.71858        0.53836
H        -14.07012       22.62830       -0.04299
H        -12.50793       21.80980        0.40534
H        -13.39945       22.82294        1.61200
H        -12.25184       24.63629        0.80785
Ca        -9.35726       31.49697       -0.52965
O        -11.57165       33.33223       -0.55132
H        -12.11343       34.15881       -0.55411
H        -11.47055       33.10230       -1.50663
O         -6.48794       31.62600       -0.14068
H         -6.65301       30.97354        0.58467
H         -5.63890       31.32570       -0.54856
O        -11.02037       30.96734       -2.80178
H        -10.33994       30.28581       -3.02431
H        -11.63662       30.96654       -3.57441
O         -8.61774       34.34237        0.21408
H         -8.34723       34.68881        1.10018
H         -8.55185       35.12316       -0.39105
O         -7.80701       30.39566       -2.49804
H         -7.43059       29.63501       -3.00218
H         -8.08067       31.04905       -3.18691

Ca 1.0



