%chk=apoCaM-CA-Ng.loop1.water2.frame1295.chk
%nprocshared=20
%mem=10GB
%nosave
#b3lyp/svp scf=(tight,noincore,xqc) Test 
#IOP(5/87=12) Density=Current Pop=(MK,readradii) iop(6/33=2) iop(6/42=6)

apoCaM-CA-Ng.loop1.water2.frame1295 

   0  1 
C         70.95833       25.73027       91.08276
C         70.36042       26.23718       92.36085
O         69.19446       26.60602       92.35568
H         72.01836       25.43065       91.22075
H         70.38142       24.85387       90.72335
H         70.91914       26.53376       90.31641
N         71.11543       26.31827       93.49342
C         70.62035       26.88451       94.74181
C         71.33964       28.19136       94.98559
O         71.95524       28.39558       96.02316
C         70.70162       25.87342       95.90945
C         72.08823       25.37426       96.22365
O         72.71306       24.71603       95.40793
O         72.62768       25.60999       97.43472
H         72.10421       26.03330       93.44479
H         69.54586       27.15390       94.64670
H         70.05877       24.99808       95.67489
H         70.28258       26.36284       96.81670
N         71.26558       29.14602       94.01828
C         71.84536       30.47256       94.13576
C         71.23112       31.20463       95.31799
O         72.00163       31.65027       96.15697
C         71.69097       31.29085       92.82690
C         72.29846       30.61529       91.57538
C         73.82093       30.41025       91.64050
C         74.32079       29.71309       90.36507
N         75.77383       29.54838       90.38336
H         70.74506       28.91337       93.16114
H         72.93727       30.37374       94.31926
H         72.17099       32.28535       92.96217
H         70.61871       31.47013       92.61596
H         72.07555       31.26289       90.69958
H         71.80587       29.63853       91.39316
H         74.09363       29.77374       92.50764
H         74.31753       31.39931       91.74781
H         74.03450       30.31099       89.47165
H         73.84052       28.71154       90.28437
H         76.23934       30.48451       90.40999
H         76.06544       28.98318       91.21354
H         76.07082       29.04911       89.51360
N         69.88677       31.35583       95.53296
C         68.78101       30.84738       94.71297
C         67.99929       29.76643       95.44912
O         68.29929       29.47453       96.59820
C         67.88021       32.00331       94.22052
C         67.77464       33.17891       95.16192
O         67.34560       33.09098       96.43916
O         68.15532       34.26766       94.76104
H         69.62196       31.84587       96.40022
H         69.13939       30.32642       93.81239
H         66.87776       31.63119       93.92143
H         68.34953       32.40531       93.29408
N         67.04428       29.04373       94.78247
C         66.39271       27.87152       95.35380
C         65.45597       28.19279       96.49117
O         65.09211       29.34505       96.67012
H         66.84797       29.26452       93.79458
H         67.18998       27.18489       95.71271
H         65.80925       27.33175       94.57776
N         65.07868       27.19909       97.35028
C         64.35044       27.44973       98.59221
C         63.37506       26.32080       98.90472
O         63.78092       25.16893       98.84096
C         65.36327       27.58730       99.75243
C         66.26426       28.75673       99.47221
O         67.46466       28.59772       99.32103
O         65.70341       29.96050       99.24431
H         65.48793       26.26239       97.20890
H         63.81211       28.41593       98.52570
H         65.95788       26.65261       99.86141
H         64.82239       27.77554      100.70542
N         62.10100       26.54014       99.35048
C         61.54626       27.85885       99.60112
C         60.97127       28.47605       98.35491
O         60.80484       27.78702       97.35707
H         61.53622       25.72408       99.63403
H         62.29820       28.50528      100.10013
H         60.70058       27.77687      100.31739
N         60.61542       29.79078       98.36104
C         59.91245       30.43081       97.25725
C         60.83021       31.30060       96.42246
O         60.53466       32.46523       96.19970
C         58.62902       31.16050       97.74545
C         58.87795       32.18766       98.85927
O         57.69983       30.21156       98.20094
H         60.85947       30.35446       99.18790
H         59.56730       29.66577       96.52640
H         58.20808       31.69240       96.85663
H         56.79698       30.55009       97.95979
H         59.19270       31.68878       99.79885
H         59.65888       32.91377       98.56666
H         57.93856       32.73912       99.07563
N         61.88433       30.72463       95.77879
C         62.54207       31.38260       94.65616
C         63.35223       32.58303       95.11035
O         64.33986       32.41241       95.80987
C         63.40293       30.39308       93.80362
C         62.66815       29.06447       93.44750
C         63.88921       31.08407       92.51458
C         61.28579       29.23593       92.80973
H         62.09345       29.74037       95.98639
H         61.73020       31.72845       93.97810
H         64.30699       30.10291       94.37685
H         62.53687       28.44395       94.35673
H         63.31234       28.46378       92.76938
H         64.50211       31.97794       92.75122
H         64.52356       30.39076       91.92214
H         63.03315       31.40698       91.88580
H         60.59120       29.74820       93.50842
H         61.34366       29.80626       91.86206
H         60.85671       28.23478       92.59361
N         62.98250       33.83395       94.71372
C         63.73040       35.05009       95.01742
C         62.92708       36.02504       95.87747
O         63.41649       37.12242       96.10820
C         64.19092       35.72014       93.69241
C         63.03332       36.20019       92.80534
O         64.97685       34.82374       92.95065
H         62.12707       33.92902       94.14809
H         64.65202       34.80730       95.58172
H         64.79743       36.62495       93.93518
H         65.86751       34.79235       93.38650
H         63.44111       36.70550       91.90431
H         62.40721       35.35305       92.45889
H         62.39350       36.92691       93.34835
N         61.69599       35.71218       96.38052
C         60.86638       36.65637       97.12878
C         61.56283       37.09918       98.40758
O         61.67906       36.29566       99.32334
C         59.49633       36.00347       97.45571
C         58.53938       36.93771       98.19686
O         58.88561       35.57894       96.26261
H         61.31169       34.77912       96.19325
H         60.69349       37.53729       96.47178
H         59.69839       35.12542       98.11138
H         58.40658       34.73166       96.46352
H         57.59436       36.39443       98.41405
H         58.97408       37.26648       99.16390
H         58.30971       37.82650       97.57398
N         62.08875       38.36040       98.51257
C         62.81462       38.86980       99.68064
C         63.79103       37.81481      100.18241
O         63.73395       37.40995      101.33583
C         61.82280       39.35099      100.76188
C         60.91540       40.48098      100.23497
C         59.91090       40.93435      101.30564
C         58.92166       42.00178      100.79981
N         59.56729       43.28479      100.51425
H         62.04467       38.97559       97.68593
H         63.40598       39.75812       99.36320
H         62.39569       39.73828      101.63361
H         61.19778       38.49512      101.09747
H         60.34538       40.11475       99.35354
H         61.55120       41.33528       99.91893
H         60.44594       41.31611      102.20250
H         59.31387       40.04672      101.60771
H         58.15586       42.16451      101.59029
H         58.39694       41.63001       99.89165
H         58.83699       43.96792      100.20723
H         60.02542       43.65482      101.37868
H         60.26990       43.19193       99.74786
N         64.63121       37.23584       99.28547
C         65.39264       36.02413       99.55365
C         65.82719       35.41190       98.23365
O         65.39987       34.29605       97.97806
C         66.55916       36.21491      100.55810
C         67.35364       34.91300      100.79779
C         66.49725       33.80419      101.34476
O         65.86593       33.95534      102.52422
O         66.37474       32.75960      100.72489
H         64.59556       37.58984       98.31820
H         64.68961       35.29211      100.01525
H         66.15721       36.57305      101.52908
H         67.27878       36.97618      100.20687
H         68.17168       35.11353      101.52135
H         67.82417       34.58658       99.84365
N         66.62363       36.02927       97.31085
C         67.19921       37.35364       97.40330
H         68.30509       37.27049       97.35368
H         66.84831       37.95853       96.54162
H         66.92356       37.89797       98.31898
H         66.83062       35.52303       96.44246
Ca        66.63027       31.46393       97.83343
O         69.32518       31.91176       98.99930
H         69.32683       30.92198       98.96454
H         69.27356       32.12852       99.96330
O         63.24544       32.19661       98.86041
H         63.08883       32.64083       99.73124
H         62.85308       32.81534       98.19447

Ca 1.0



