%chk=apoCaM-CA-Ng.loop3.water2.frame852.chk
%nprocshared=20
%mem=10GB
%nosave
#b3lyp/svp scf=(tight,noincore,xqc) Test 
#IOP(5/87=12) Density=Current Pop=(MK,readradii) iop(6/33=2) iop(6/42=6)

apoCaM-CA-Ng.loop3.water2.frame852 

   0  1 
C         77.63398       74.71877      -16.42947
C         77.89986       75.91616      -17.29084
O         78.57518       75.79432      -18.30185
H         76.53724       74.53599      -16.39836
H         78.12786       73.81473      -16.84318
H         77.99968       74.90155      -15.39872
N         77.34523       77.11287      -16.96149
C         77.40976       78.28971      -17.82574
C         78.84480       78.81699      -17.96513
O         79.67334       78.47373      -17.13287
C         76.43239       79.34652      -17.24621
C         75.92459       80.39179      -18.18537
O         75.17633       81.25524      -17.75713
O         76.19503       80.36322      -19.49669
H         76.77310       77.14695      -16.10217
H         77.05146       77.95192      -18.81079
H         76.90230       79.81845      -16.35559
H         75.50394       78.83709      -16.90780
N         79.21852       79.62742      -19.00725
C         80.57715       80.16056      -19.17950
C         80.61175       81.69285      -19.11509
O         81.69512       82.24070      -18.96770
C         81.18120       79.60358      -20.49333
C         82.63269       80.04841      -20.75888
C         83.22430       79.35326      -21.99352
C         84.66123       79.83220      -22.25682
N         85.24818       79.13820      -23.40309
H         78.52303       79.85035      -19.72999
H         81.21448       79.81069      -18.33840
H         80.54698       79.90525      -21.35614
H         81.16206       78.49352      -20.42121
H         83.26060       79.80044      -19.87546
H         82.66103       81.14483      -20.93079
H         82.59818       79.57379      -22.88586
H         83.23009       78.25449      -21.82308
H         85.28957       79.64207      -21.35834
H         84.65656       80.92776      -22.45434
H         86.21938       79.49409      -23.55816
H         85.29337       78.11031      -23.21469
H         84.68131       79.31560      -24.26378
N         79.47813       82.44816      -19.17132
C         79.44004       83.89644      -18.97085
C         78.63285       84.16890      -17.70718
O         79.16768       84.80053      -16.80628
C         79.00554       84.63853      -20.26561
C         77.79118       84.08294      -20.94529
O         76.57785       84.17192      -20.38888
O         77.91762       83.46507      -21.99148
H         78.57839       81.98084      -19.33117
H         80.45855       84.29870      -18.76777
H         79.84836       84.50762      -20.98148
H         78.89289       85.72890      -20.08724
N         77.40505       83.60755      -17.50917
C         76.70880       83.62783      -16.22983
C         75.29632       84.15506      -16.31227
O         74.60270       84.07331      -15.30855
H         76.98348       83.04315      -18.25574
H         77.26118       84.20531      -15.45868
H         76.64904       82.57577      -15.87599
N         74.79513       84.71540      -17.44882
C         73.43025       85.21945      -17.56109
C         72.71947       84.55415      -18.72606
O         73.33576       83.77522      -19.44105
C         73.48767       86.74512      -17.77530
C         74.18461       87.43944      -16.63101
N         73.67835       87.38662      -15.37686
O         75.21752       88.05794      -16.84060
H         75.40545       84.82513      -18.26925
H         72.84650       85.00066      -16.64133
H         72.46624       87.16884      -17.87036
H         74.03703       86.95326      -18.72155
H         72.80472       86.87732      -15.18064
H         74.15966       87.86048      -14.59834
N         71.41413       84.84257      -19.00151
C         70.75158       84.34121      -20.19350
C         70.62437       82.83377      -20.23795
O         70.80917       82.16068      -19.23328
H         70.89743       85.49559      -18.39402
H         71.35659       84.67241      -21.06620
H         69.73966       84.78701      -20.30074
N         70.35497       82.24738      -21.43867
C         70.28001       80.80348      -21.69163
C         71.56420       80.08347      -21.28637
O         72.46935       80.71673      -20.76662
C         70.00379       80.58504      -23.20229
C         68.63857       81.09415      -23.59561
C         67.48739       80.41824      -23.15694
C         68.49906       82.23168      -24.40756
C         66.21806       80.86910      -23.52865
C         67.22728       82.68980      -24.76646
C         66.08383       82.00932      -24.33355
O         64.86545       82.45689      -24.69833
H         70.23263       82.88595      -22.24021
H         69.45521       80.35986      -21.09230
H         70.04451       79.51704      -23.49772
H         70.80455       81.10749      -23.77260
H         67.57439       79.53290      -22.53892
H         69.37225       82.77067      -24.75327
H         65.34106       80.33058      -23.19190
H         67.13077       83.57340      -25.38456
H         64.05090       82.00934      -24.42781
N         71.68527       78.73257      -21.48081
C         72.81334       77.90349      -21.05311
C         74.13056       78.36147      -21.67109
O         74.56558       79.47039      -21.41050
C         72.88480       77.82629      -19.49818
C         74.08195       76.98366      -18.98525
C         71.56170       77.29036      -18.91972
C         74.11572       75.51881      -19.42985
H         70.90725       78.23230      -21.93431
H         72.60827       76.86983      -21.40818
H         73.03167       78.85164      -19.09400
H         74.09085       77.01016      -17.87386
H         75.01172       77.45993      -19.33755
H         71.34006       76.27205      -19.30237
H         71.61165       77.25421      -17.81094
H         70.71483       77.95200      -19.19746
H         75.01914       75.03363      -19.00237
H         73.22548       74.96657      -19.06885
H         74.18173       75.43508      -20.53230
N         74.84868       77.53187      -22.47858
C         76.17588       77.89914      -22.97514
C         76.64273       77.13183      -24.20734
O         77.74475       77.42215      -24.65577
C         77.20074       77.72151      -21.84377
O         77.23316       76.37835      -21.44398
H         74.47295       76.59127      -22.63808
H         76.16302       78.96736      -23.28437
H         76.90436       78.36100      -20.99226
H         78.21201       78.03978      -22.18389
H         77.87974       76.32922      -20.69536
N         75.90557       76.16101      -24.82586
C         76.41368       75.43960      -25.98462
C         76.61212       76.38518      -27.16341
O         75.90518       77.38224      -27.22681
C         75.45404       74.31518      -26.37095
H         74.97773       75.89838      -24.47792
H         77.37675       74.98618      -25.67222
H         75.86532       73.74739      -27.22244
H         75.32786       73.61896      -25.51401
H         74.46041       74.72502      -26.65194
N         77.58182       76.21733      -28.11205
C         78.51813       75.09991      -28.19614
C         78.53966       74.56689      -29.62785
O         78.78150       75.37213      -30.51721
C         79.90774       75.58956      -27.79880
H         77.68396       76.96896      -28.81332
H         78.25119       74.32310      -27.47503
H         80.25017       76.40589      -28.46904
H         79.87634       75.97453      -26.75619
H         80.63139       74.74823      -27.84071
N         78.27337       73.27433      -29.99312
C         77.99455       72.15342      -29.10118
C         76.50364       71.87342      -29.00214
O         76.13670       70.98240      -28.24810
C         78.81067       70.88434      -29.47658
C         78.50565       70.21803      -30.83527
C         79.06712       70.96264      -32.01222
O         80.39245       71.19113      -32.09403
O         78.33355       71.33757      -32.91283
H         78.20995       73.09823      -31.00381
H         78.32040       72.38474      -28.07411
H         78.58188       70.12367      -28.69738
H         79.90041       71.09375      -29.40416
H         77.41098       70.05757      -30.94374
H         78.99509       69.22026      -30.84333
N         75.58015       72.62624      -29.67113
C         74.15037       72.45448      -29.51272
H         73.69365       72.22047      -30.49539
H         73.89434       71.64529      -28.79726
H         73.71446       73.40138      -29.12788
H         75.88013       73.38456      -30.29920
Ca        75.56479       82.20624      -20.58773
O         74.67800       81.31496      -23.71185
H         75.48410       81.21700      -24.27809
H         74.04433       80.63749      -24.05832
O         73.84182       84.02008      -22.57424
H         74.32728       84.43359      -23.33176
H         73.08105       83.54548      -22.99464

Ca 1.0



