%chk=apoCaM-CA-Ng.loop2.water2.frame957.chk
%nprocshared=20
%mem=10GB
%nosave
#b3lyp/svp scf=(tight,noincore,xqc) Test 
#IOP(5/87=12) Density=Current Pop=(MK,readradii) iop(6/33=2) iop(6/42=6)

apoCaM-CA-Ng.loop2.water2.frame957 

   -2  1 
C         53.73583       94.25208       29.44490
C         52.63723       94.83585       30.27950
O         51.47318       94.64654       29.95610
H         54.34900       93.56688       30.06856
H         53.31949       93.67799       28.59016
H         54.38062       95.06678       29.05590
N         52.94711       95.54067       31.40149
C         51.95017       96.10352       32.30200
C         51.93451       95.34758       33.62889
O         51.11673       95.67745       34.47667
C         52.25154       97.60755       32.48208
C         51.21472       98.32975       33.29653
O         50.05435       98.36984       32.91957
O         51.56619       98.95299       34.43761
H         53.94351       95.65249       31.65014
H         50.93356       95.99574       31.86388
H         52.29133       98.09114       31.48186
H         53.24890       97.72594       32.96124
N         52.79475       94.31247       33.88066
C         52.76526       93.55198       35.12682
C         54.07445       92.77866       35.34954
O         54.90023       92.73904       34.44846
C         51.55746       92.59405       35.07582
H         53.49139       94.05853       33.17098
H         52.67982       94.28105       35.96071
H         50.61375       93.15334       34.91227
H         51.68325       91.87589       34.23583
H         51.42456       92.00896       36.00029
N         54.38771       92.14618       36.52135
C         53.57727       92.15081       37.73480
C         54.34117       92.75831       38.90150
O         55.52799       93.02853       38.78332
C         53.05607       90.72692       38.04058
C         54.12384       89.69528       38.28246
O         54.12715       89.00459       39.43479
O         54.94205       89.42319       37.41858
H         55.29253       91.65249       36.55626
H         52.69264       92.79818       37.60072
H         52.44857       90.37291       37.18252
H         52.38927       90.76684       38.92838
N         53.67650       93.07382       40.04735
C         54.28911       93.73213       41.18999
C         53.85801       93.05204       42.46764
O         53.09280       93.65767       43.20447
H         52.65798       92.91184       40.08370
H         53.89217       94.77088       41.21274
H         55.39419       93.80626       41.11313
N         54.23682       91.79149       42.81760
C         55.22136       90.98427       42.10961
C         56.60562       91.56261       42.37350
O         56.94357       91.75709       43.53375
C         55.14047       89.52611       42.62590
C         55.93214       88.52409       41.81924
N         55.94576       87.22523       42.19342
O         56.53799       88.86483       40.81553
H         53.80554       91.39255       43.66744
H         54.96922       90.95346       41.02952
H         54.08127       89.19154       42.57393
H         55.46415       89.48892       43.68888
H         55.43050       86.91261       43.02857
H         56.47620       86.53055       41.65019
N         57.47213       91.83233       41.35808
C         58.80028       92.39573       41.57424
C         59.90001       91.35096       41.54602
O         61.05865       91.72954       41.63873
H         57.20411       91.58147       40.39616
H         58.86533       92.90309       42.56132
H         58.97908       93.17197       40.79983
N         59.61503       90.01979       41.48270
C         60.60958       88.95514       41.52327
C         60.48101       88.10737       40.24125
O         59.16906       87.63872       40.12684
C         60.42424       88.09652       42.80909
C         60.59722       88.92847       44.08826
O         59.18704       87.42520       42.82253
H         58.63559       89.73179       41.44010
H         61.63768       89.37805       41.54875
H         61.21879       87.31995       42.82744
H         58.47790       88.08609       43.03121
H         60.49840       88.27085       44.97781
H         61.59995       89.40400       44.10505
H         59.82207       89.72230       44.15177
N         61.43365       86.98844       40.21331
C         61.39265       86.18899       38.96463
C         60.95837       84.79262       39.36162
O         61.65896       84.14962       40.13169
C         62.76756       86.21038       38.22472
C         62.87213       85.18801       37.06068
C         63.08758       87.63550       37.72931
C         61.83499       85.35057       35.94859
H         62.39791       87.30938       40.46139
H         60.63371       86.60106       38.26184
H         63.55994       85.91908       38.95059
H         62.77642       84.15976       37.47056
H         63.88716       85.26342       36.61164
H         64.08225       87.65855       37.23613
H         62.32170       87.99033       37.00858
H         63.11612       88.35876       38.56979
H         60.81046       85.21092       36.34600
H         61.91603       86.34347       35.46350
H         62.00906       84.57421       35.17368
N         59.75272       84.30613       38.94068
C         59.15240       83.09325       39.47686
C         58.55986       82.14485       38.43434
O         58.06555       81.11431       38.87333
C         58.07378       83.48709       40.51550
C         56.90739       84.24535       39.93442
O         57.08605       85.45731       39.37700
O         55.78155       83.77994       40.00396
H         59.17851       84.89789       38.33643
H         59.92010       82.51378       40.03552
H         58.53936       84.11326       41.30780
H         57.69605       82.56289       41.00574
N         58.52287       82.38348       37.08081
C         57.90019       81.41133       36.17145
C         57.83616       81.89077       34.71066
O         58.88641       82.23126       34.18323
C         58.69801       80.07639       36.15690
C         57.90486       79.01101       35.43951
C         58.18508       78.67545       34.10483
C         56.84430       78.36949       36.10309
C         57.40514       77.72191       33.44226
C         56.07708       77.40730       35.44187
C         56.35370       77.08736       34.11055
H         58.90257       83.26272       36.70104
H         56.88262       81.22004       36.56401
H         58.94314       79.68357       37.16369
H         59.67746       80.25182       35.65902
H         58.98695       79.16962       33.57107
H         56.61369       78.61661       37.13241
H         57.61094       77.47960       32.40805
H         55.26380       76.91564       35.96010
H         55.75077       76.35035       33.59639
N         56.69265       81.81547       33.94120
C         56.68567       81.96771       32.48235
C         57.12980       83.30399       31.92238
O         57.27511       83.41121       30.71234
C         55.22246       81.73415       32.09503
C         54.78663       80.73113       33.13343
C         55.41188       81.30756       34.40003
H         57.34396       81.16375       32.08094
H         54.63718       82.66376       32.29069
H         55.06558       81.43128       31.03773
H         53.69147       80.55970       33.19866
H         55.28832       79.76547       32.89548
H         54.81887       82.15911       34.79928
H         55.46821       80.48616       35.13667
N         57.31709       84.37913       32.72828
C         57.71120       85.69867       32.23400
C         59.11332       85.72755       31.62812
O         59.47833       86.75885       31.08078
C         57.61711       86.70785       33.39718
C         58.67219       86.39673       34.46832
C         58.32546       86.99533       35.78282
O         58.11832       86.25026       36.72359
O         58.26256       88.31906       35.98732
H         57.09661       84.26486       33.72688
H         56.97436       85.99626       31.45513
H         56.59372       86.60647       33.82476
H         57.73691       87.75908       33.05561
H         59.67850       86.72841       34.13637
H         58.74187       85.30254       34.64132
N         59.96696       84.66459       31.72336
C         61.31636       84.67037       31.19629
H         62.03355       84.51158       32.02951
H         61.42826       83.84251       30.46561
H         61.57333       85.62438       30.69102
H         59.67758       83.80808       32.21217
Ca        58.49006       88.59328       38.19544
O         54.87050       86.40153       37.48274
H         54.78694       85.57770       38.02431
H         53.93579       86.69020       37.33147
O         58.50620       91.51058       37.77683
H         57.55978       91.62127       38.04023
H         58.45994       91.02727       36.91432

Ca 1.0



