%chk=apoCaM-CA-Ng.loop1.water6.frame645.chk
%nprocshared=20
%mem=10GB
%nosave
#b3lyp/svp scf=(tight,noincore,xqc) Test 
#IOP(5/87=12) Density=Current Pop=(MK,readradii) iop(6/33=2) iop(6/42=6)

apoCaM-CA-Ng.loop1.water6.frame645 

   0  1 
C        -21.63724       39.67520       47.95055
C        -22.99726       39.26417       47.47326
O        -23.29343       39.43595       46.30064
H        -21.04562       40.11218       47.11728
H        -21.73560       40.43529       48.75239
H        -21.09755       38.79125       48.34881
N        -23.88491       38.69419       48.33470
C        -25.22285       38.27484       47.91613
C        -26.06789       39.45443       47.44294
O        -25.67362       40.59629       47.63716
C        -25.92212       37.46380       49.03499
C        -26.07774       38.17908       50.35285
O        -26.61840       37.52270       51.39644
O        -25.69456       39.32726       50.50212
H        -23.57657       38.52977       49.30551
H        -25.09850       37.59005       47.04850
H        -25.31170       36.55531       49.22783
H        -26.92451       37.13283       48.69026
N        -27.23359       39.23282       46.76511
C        -28.05305       40.29489       46.18851
C        -29.40502       40.27431       46.86912
O        -30.40345       39.90020       46.26702
C        -28.16163       40.10688       44.65800
C        -28.72905       41.37104       43.97987
C        -28.96232       41.15260       42.47854
C        -29.23540       42.45837       41.70635
N        -30.36384       43.22009       42.24052
H        -27.54410       38.25948       46.62182
H        -27.58737       41.29046       46.36174
H        -28.77581       39.20750       44.43196
H        -27.14756       39.93756       44.23446
H        -27.99840       42.19498       44.13001
H        -29.69139       41.67052       44.44593
H        -29.81165       40.44542       42.35176
H        -28.05829       40.69574       42.02127
H        -29.43909       42.19735       40.64434
H        -28.32451       43.09720       41.73164
H        -30.12473       43.58596       43.18685
H        -30.54191       44.04298       41.62010
H        -31.22426       42.62880       42.28552
N        -29.48012       40.65225       48.17115
C        -30.69178       40.59447       48.98322
C        -31.07639       41.97155       49.54641
O        -31.13101       42.10950       50.76085
C        -30.47478       39.53234       50.09997
C        -29.31290       39.81683       51.03234
O        -28.58372       40.94238       50.89170
O        -29.02763       39.01513       51.90576
H        -28.60340       40.96030       48.60494
H        -31.55563       40.24064       48.37855
H        -30.28268       38.55445       49.60562
H        -31.40395       39.43087       50.70166
N        -31.41388       43.04910       48.77470
C        -31.46100       43.08359       47.32339
C        -30.59354       44.17283       46.71545
O        -30.59830       44.28024       45.49958
H        -31.70546       43.90959       49.26519
H        -32.51112       43.27825       47.01751
H        -31.18036       42.12302       46.88247
N        -29.86539       45.04881       47.46874
C        -29.18656       46.20842       46.88935
C        -27.75712       45.89683       46.46225
O        -27.24915       44.81612       46.72115
C        -29.13436       47.35339       47.93636
C        -30.48192       47.82019       48.42305
O        -30.54128       48.79921       49.34556
O        -31.51833       47.33495       47.99699
H        -29.92408       44.99134       48.49340
H        -29.76181       46.57515       46.00912
H        -28.62384       48.24130       47.50902
H        -28.54576       47.00936       48.81571
N        -27.03094       46.87252       45.84720
C        -25.60010       46.82054       45.60594
C        -25.15087       45.74126       44.65744
O        -25.63495       45.69577       43.53558
H        -27.50294       47.75731       45.60596
H        -25.07148       46.73427       46.57859
H        -25.29619       47.78882       45.15193
N        -24.13451       44.90193       45.02036
C        -23.50489       43.95773       44.10088
C        -22.05334       44.35906       43.87492
O        -21.53624       45.20140       44.59758
C        -23.59619       42.51910       44.65858
C        -25.04889       42.10191       44.86881
O        -22.99816       41.61837       43.76149
H        -23.73900       44.98119       45.97039
H        -24.01112       43.99867       43.11206
H        -23.06498       42.49170       45.64222
H        -22.60815       40.88070       44.29799
H        -25.08240       41.05877       45.23549
H        -25.54463       42.75661       45.61635
H        -25.60184       42.15071       43.90877
N        -21.34067       43.81166       42.84523
C        -19.94463       44.16469       42.57663
C        -19.82724       45.64614       42.17335
O        -18.72287       46.17102       42.15366
C        -19.30787       43.23224       41.48150
C        -19.61303       41.71452       41.66821
C        -17.77872       43.42607       41.37908
C        -19.20617       41.12707       43.01952
H        -21.82213       43.13777       42.23999
H        -19.39210       43.99960       43.52894
H        -19.74767       43.50479       40.49624
H        -19.10490       41.14359       40.86035
H        -20.69255       41.51355       41.52698
H        -17.50394       44.45491       41.08400
H        -17.28121       43.19399       42.34405
H        -17.35913       42.75994       40.59559
H        -19.75187       41.62876       43.84515
H        -19.47477       40.04918       43.03765
H        -18.11428       41.21400       43.18454
N        -20.93208       46.38321       41.84950
C        -20.91361       47.78954       41.46986
C        -21.56498       47.95853       40.10257
O        -22.67317       47.48248       39.90223
C        -21.59962       48.65746       42.55557
C        -23.02723       48.23248       42.92103
O        -20.81151       48.62009       43.71905
H        -21.85808       45.93625       41.85957
H        -19.87067       48.17444       41.40996
H        -21.62862       49.70146       42.15821
H        -20.86095       49.51958       44.13783
H        -23.03008       47.21569       43.36249
H        -23.43395       48.92971       43.68335
H        -23.70018       48.25493       42.04242
N        -20.91700       48.64377       39.11703
C        -21.44096       48.87712       37.76620
C        -20.38850       49.65020       36.97393
O        -19.89340       49.14301       35.97745
C        -22.81760       49.61238       37.78064
C        -23.37348       49.80329       36.36693
O        -22.73323       50.86349       38.41080
H        -19.98485       49.02336       39.34752
H        -21.59794       47.88834       37.27799
H        -23.57854       48.99151       38.30220
H        -22.79804       50.69994       39.38797
H        -22.70248       50.44385       35.75716
H        -23.49111       48.81876       35.86504
H        -24.37108       50.28973       36.41862
N        -19.94830       50.85864       37.42949
C        -18.75946       51.53511       36.92339
C        -18.10020       52.26977       38.08674
O        -18.73238       53.11729       38.70219
C        -19.04053       52.43513       35.70179
C        -20.05463       53.56691       35.93520
C        -20.05185       54.54020       34.74801
C        -21.01542       55.71067       34.98343
N        -20.88834       56.71197       33.92448
H        -20.34754       51.19806       38.31660
H        -18.03660       50.76360       36.57545
H        -19.39800       51.81047       34.85331
H        -18.06354       52.87814       35.40650
H        -19.76909       54.15773       36.82558
H        -21.06750       53.13722       36.09844
H        -20.32304       54.01251       33.80744
H        -19.02272       54.95000       34.64066
H        -20.78295       56.19525       35.95804
H        -22.06000       55.32974       35.02051
H        -21.56292       57.48997       34.10541
H        -19.91871       57.10620       33.92368
H        -21.09584       56.28669       32.99229
N        -16.85675       51.90531       38.50781
C        -16.30714       52.33544       39.78910
C        -16.74920       51.36855       40.88707
O        -17.44086       51.83919       41.77990
C        -14.77792       52.55292       39.74217
C        -14.40222       53.86222       39.03395
C        -12.91031       54.03826       39.00065
O        -12.21289       53.25090       38.38105
O        -12.33419       55.06682       39.65245
H        -16.38186       51.15500       37.99102
H        -16.74582       53.31941       40.07755
H        -14.26341       51.69996       39.26036
H        -14.39874       52.63736       40.78465
H        -14.85052       54.70913       39.60122
H        -14.79627       53.88463       37.99659
N        -16.46019       50.03290       40.95047
C        -15.67686       49.25241       40.01627
H        -14.82367       48.79216       40.55551
H        -16.31210       48.44448       39.59641
H        -15.26566       49.82473       39.18021
H        -16.84482       49.50495       41.74953
Ca       -26.65901       41.55006       51.90055
O        -27.82276       43.27804       49.54148
H        -28.19268       44.17543       49.72979
H        -27.82829       43.20175       48.55599
O        -26.65888       39.90707       54.29513
H        -26.15785       39.46188       53.56572
H        -27.56398       40.05545       53.92149
O        -28.57921       43.52209       53.01772
H        -28.53202       42.64912       53.48314
H        -29.01353       43.31799       52.15192
O        -23.86635       42.24987       49.62765
H        -23.26146       42.57535       48.91423
H        -23.26386       41.83316       50.29396
O        -24.11131       42.73341       53.07612
H        -24.27430       41.86451       53.52253
H        -24.87330       43.30166       53.35413
O        -25.79329       44.78155       50.90147
H        -26.53439       45.23277       51.37906
H        -25.00331       45.35330       51.06814

Ca 1.0



