%chk=apoCaM-CA-Ng.loop1.water5.frame537.chk
%nprocshared=20
%mem=10GB
%nosave
#b3lyp/svp scf=(tight,noincore,xqc) Test 
#IOP(5/87=12) Density=Current Pop=(MK,readradii) iop(6/33=2) iop(6/42=6)

apoCaM-CA-Ng.loop1.water5.frame537 

   0  1 
C         96.11876        5.46433       31.74838
C         96.14210        5.07292       30.29795
O         97.21882        4.98793       29.72666
H         95.07928        5.52823       32.13605
H         96.67501        4.71804       32.35153
H         96.59319        6.46110       31.86864
N         94.97422        4.83288       29.63632
C         94.84799        4.51316       28.21627
C         95.48182        3.17080       27.85055
O         96.23696        2.61081       28.63271
C         95.37632        5.69524       27.36777
C         95.01908        5.60871       25.91336
O         93.72744        5.56123       25.53557
O         95.89369        5.62742       25.06483
H         94.09243        4.91623       30.16605
H         93.75503        4.41280       28.02711
H         96.47900        5.78113       27.47852
H         94.91991        6.63353       27.74912
N         95.13541        2.56218       26.67888
C         95.62958        1.26688       26.22010
C         95.36770        0.17768       27.24382
O         96.27763       -0.54825       27.61984
C         97.10056        1.34609       25.75902
C         97.24286        2.33409       24.59033
C         98.66220        2.34182       24.01172
C         98.79625        3.25209       22.77580
N         98.55146        4.66202       23.08342
H         94.43175        3.01878       26.08114
H         95.03797        0.98084       25.32089
H         97.40765        0.33847       25.39976
H         97.76611        1.63959       26.59957
H         96.97729        3.34536       24.95096
H         96.53799        2.04003       23.78135
H         98.91658        1.30775       23.69116
H         99.38875        2.65513       24.79202
H         98.09272        2.91739       21.98045
H         99.83032        3.14712       22.38112
H         98.74900        5.23541       22.23185
H         97.55216        4.81137       23.34087
H         99.17712        4.97940       23.85888
N         94.09745       -0.00226       27.69848
C         93.67812       -1.06719       28.60712
C         92.15810       -0.93331       28.76130
O         91.74860        0.07932       29.31366
C         94.39733       -0.94584       29.98475
C         94.17190       -2.09954       30.92639
O         94.73164       -2.06958       32.15082
O         93.53517       -3.08097       30.58778
H         93.37811        0.63883       27.32619
H         93.98041       -2.01938       28.13859
H         94.08351       -0.00332       30.48182
H         95.49501       -0.89710       29.84839
N         91.22794       -1.79187       28.23867
C         91.46844       -3.06165       27.56692
C         90.60234       -4.10821       28.21878
O         89.80718       -4.75540       27.55270
H         90.23760       -1.51013       28.32522
H         92.51896       -3.38654       27.62979
H         91.19028       -2.97344       26.49492
N         90.65646       -4.24346       29.56536
C         89.76938       -5.09273       30.34835
C         89.72079       -4.62736       31.78979
O         90.60316       -3.90314       32.21896
C         90.11469       -6.59124       30.20641
C         91.59713       -6.91257       30.10712
O         91.99224       -7.47701       29.09900
O         92.51480       -6.61572       31.05415
H         91.29536       -3.60982       30.05613
H         88.72769       -4.91507       29.99692
H         89.66243       -6.93770       29.25094
H         89.62866       -7.17637       31.01655
N         88.66204       -4.95687       32.58435
C         88.50007       -4.44197       33.93533
C         87.95560       -3.01682       33.98172
O         86.93750       -2.81579       34.63012
H         87.94762       -5.60826       32.22366
H         89.46223       -4.51729       34.48209
H         87.77365       -5.09089       34.47405
N         88.57114       -1.97576       33.34616
C         88.15928       -0.58284       33.45629
C         89.33304        0.26320       33.92659
O         90.45117       -0.23089       34.00679
C         87.61830       -0.05922       32.09653
C         88.65756       -0.09195       30.96585
O         86.50653       -0.82047       31.70280
H         89.38933       -2.14382       32.76478
H         87.34513       -0.48437       34.20752
H         87.31239        1.00783       32.20717
H         85.72451       -0.46934       32.20402
H         88.98428       -1.12986       30.74763
H         88.21311        0.32759       30.03825
H         89.54534        0.52184       31.22664
N         89.14825        1.57455       34.23822
C         90.24526        2.47088       34.60710
C         90.91714        2.04450       35.92347
O         91.96876        2.57797       36.23689
C         89.73110        3.95391       34.61845
C         89.21005        4.33321       33.19654
C         90.81540        4.95894       35.06192
C         88.50682        5.68937       33.12821
H         88.18745        1.94376       34.17888
H         91.02133        2.39685       33.81102
H         88.88969        4.01884       35.34409
H         88.45888        3.59954       32.84445
H         90.05061        4.31477       32.46870
H         90.42729        5.99482       35.07477
H         91.13600        4.77525       36.10486
H         91.69541        4.90949       34.38542
H         89.19528        6.52653       33.35206
H         88.11873        5.84600       32.09947
H         87.65005        5.70928       33.83492
N         90.39956        1.06020       36.71759
C         91.03051        0.60905       37.95621
C         90.06735        0.77963       39.11697
O         88.96489        1.26842       38.92430
C         91.53234       -0.85264       37.79738
C         90.42885       -1.86245       37.46470
O         92.50796       -0.89828       36.79005
H         89.52015        0.60033       36.45483
H         91.92513        1.22249       38.19803
H         91.99320       -1.20305       38.74850
H         93.35619       -0.57449       37.19437
H         90.86784       -2.88145       37.40486
H         89.64868       -1.86521       38.25426
H         89.95987       -1.63885       36.48497
N         90.43363        0.37167       40.36557
C         89.56909        0.48778       41.52923
C         90.35682        1.16684       42.64422
O         89.95612        2.23559       43.08763
C         89.00392       -0.91424       41.86738
C         87.88970       -0.86221       42.91181
O         90.02096       -1.78693       42.28564
H         91.34935       -0.07663       40.49128
H         88.68516        1.11798       41.28327
H         88.54137       -1.29852       40.92459
H         89.77889       -2.69617       41.96924
H         87.06202       -0.21503       42.54746
H         87.47968       -1.88393       43.06415
H         88.26524       -0.47074       43.87839
N         91.52568        0.62478       43.09676
C         92.42057        1.25304       44.05961
C         93.78828        1.40627       43.40817
O         94.32802        0.40592       42.94832
C         92.56694        0.35244       45.30458
C         93.41499        1.03536       46.39595
C         93.83145        0.04827       47.49009
C         94.65704        0.75485       48.57564
N         95.22155       -0.21121       49.51689
H         91.83477       -0.27933       42.71091
H         92.02416        2.23999       44.38832
H         93.04216       -0.60400       44.99140
H         91.56922        0.11201       45.73300
H         92.83970        1.88715       46.82227
H         94.35441        1.43482       45.95784
H         94.45705       -0.73971       47.01525
H         92.94126       -0.43127       47.95176
H         94.00730        1.47748       49.11850
H         95.49351        1.32131       48.10828
H         95.89124       -0.83985       49.01518
H         95.74351        0.30252       50.26319
H         94.46383       -0.78148       49.95647
N         94.44333        2.60062       43.37915
C         95.79004        2.71908       42.82792
C         95.80808        2.39492       41.33298
O         96.51500        1.46470       40.97252
C         96.43399        4.07836       43.18457
C         97.87773        4.18420       42.65686
C         98.56650        5.45371       43.07957
O         99.71471        5.66031       42.72100
O         97.94234        6.36475       43.85234
H         93.99833        3.42546       43.81177
H         96.43159        1.96740       43.34621
H         96.45526        4.15678       44.29469
H         95.84016        4.93010       42.81181
H         97.86739        4.14810       41.54611
H         98.47358        3.32504       43.03527
N         95.07855        3.05350       40.38490
C         94.16707        4.14627       40.64124
H         93.36934        3.83119       41.34372
H         94.70621        5.02984       41.02402
H         93.68379        4.45524       39.69025
H         95.16171        2.73662       39.40592
Ca        92.49280       -5.53351       33.03225
O         95.70407       -5.07338       32.24694
H         96.23865       -4.53948       31.60693
H         96.11492       -5.97374       32.22210
O         92.31189       -2.65776       34.44348
H         92.59522       -3.05494       35.30360
H         91.32415       -2.69232       34.47979
O         94.47053       -7.54456       34.03260
H         94.14238       -7.62445       34.96312
H         93.72568       -7.88734       33.47731
O         91.66190       -6.21393       35.69023
H         91.38024       -5.42700       36.22031
H         90.86987       -6.44218       35.14101
O         94.91440       -4.41510       35.60957
H         95.55961       -3.81506       35.15784
H         94.63255       -3.91348       36.41570

Ca 1.0



