%chk=apoCaM-CA-Ng.loop3.water5.frame267.chk
%nprocshared=20
%mem=10GB
%nosave
#b3lyp/svp scf=(tight,noincore,xqc) Test 
#IOP(5/87=12) Density=Current Pop=(MK,readradii) iop(6/33=2) iop(6/42=6)

apoCaM-CA-Ng.loop3.water5.frame267 

   0  1 
C         40.55585        5.66604       11.35200
C         40.90120        4.38713       10.64505
O         42.07255        4.05348       10.61124
H         39.46188        5.85057       11.35492
H         40.90313        5.60499       12.40640
H         41.06416        6.51991       10.85755
N         39.92426        3.60240       10.09439
C         40.12565        2.29354        9.46307
C         40.79209        2.33478        8.07785
O         40.95327        1.26983        7.49932
C         40.87366        1.34909       10.44713
C         40.90785       -0.08405        9.99726
O         42.08918       -0.69760        9.78926
O         39.86882       -0.70275        9.83343
H         38.94734        3.91739       10.19454
H         39.11364        1.86387        9.29193
H         40.36590        1.37758       11.43545
H         41.92091        1.68726       10.58836
N         41.21794        3.48895        7.48189
C         42.00992        3.49326        6.24448
C         43.48718        3.68426        6.56973
O         44.30713        3.61905        5.66273
C         41.53249        4.60528        5.28792
C         40.15681        4.33161        4.66359
C         39.71599        5.54630        3.82436
C         38.39804        5.33413        3.06125
N         38.54925        4.39484        1.94731
H         41.09811        4.38480        7.97526
H         41.95097        2.51083        5.72628
H         42.25095        4.69914        4.44258
H         41.52771        5.57012        5.84172
H         39.39766        4.14606        5.45374
H         40.24460        3.42262        4.03173
H         40.50468        5.82949        3.09300
H         39.57673        6.39880        4.52497
H         38.08515        6.31634        2.64165
H         37.59987        4.98995        3.75504
H         37.64142        4.32930        1.43259
H         39.27880        4.74480        1.28335
H         38.80762        3.44265        2.28742
N         43.90218        3.90167        7.84706
C         45.28456        4.03658        8.25521
C         46.01759        2.72146        8.04603
O         45.55261        1.69683        8.52589
C         45.32970        4.47017        9.74199
C         46.71798        4.84989       10.12798
O         47.62390        4.04334       10.09035
O         47.00943        6.13469       10.31311
H         43.20424        3.99015        8.58490
H         45.75136        4.85792        7.66264
H         44.92456        3.69123       10.41866
H         44.69870        5.38224        9.84614
N         47.19522        2.69015        7.36451
C         47.97378        1.48094        7.13983
C         48.35707        0.77875        8.42924
O         48.07250       -0.40259        8.56356
H         47.57243        3.57465        6.99264
H         48.90665        1.75974        6.60270
H         47.40149        0.78558        6.48825
N         48.99442        1.45202        9.42725
C         49.42100        0.83604       10.68554
C         48.41741        1.03178       11.83414
O         48.71642        0.62661       12.94925
C         50.82523        1.34512       11.08114
C         50.83372        2.80636       11.47053
N         50.87049        3.16264       12.77533
O         50.79347        3.67236       10.60980
H         49.17027        2.45203        9.28218
H         49.51913       -0.26294       10.54390
H         51.56948        1.16168       10.27425
H         51.15719        0.74276       11.95398
H         50.87200        2.44786       13.51726
H         50.86122        4.15521       13.04871
N         47.18741        1.57818       11.62542
C         46.15935        1.73957       12.64532
C         46.42062        2.86257       13.62790
O         47.50550        3.42037       13.66213
H         46.91546        1.82617       10.66963
H         45.96857        0.78003       13.17367
H         45.22284        2.01969       12.11981
N         45.40739        3.26090       14.45177
C         45.49630        4.37764       15.39453
C         45.62312        5.71965       14.67108
O         45.57052        5.76252       13.44967
C         44.25885        4.40269       16.33710
C         44.26439        3.23503       17.30035
C         44.74772        3.42510       18.60777
C         43.81153        1.95775       16.92263
C         44.79986        2.35903       19.50800
C         43.86009        0.89355       17.82771
C         44.35997        1.08715       19.11880
O         44.41365        0.04694       19.97435
H         44.51917        2.74894       14.37852
H         46.39947        4.24457       16.03103
H         43.29589        4.46876       15.78385
H         44.30506        5.32355       16.95362
H         45.10268        4.39737       18.92753
H         43.41130        1.77246       15.93770
H         45.18800        2.52308       20.50519
H         43.51139       -0.08490       17.52219
H         44.76478        0.13800       20.87166
N         45.79472        6.86788       15.39598
C         45.92311        8.20420       14.81722
C         47.29019        8.76426       15.19944
O         48.05300        9.09672       14.30487
C         44.74994        9.12494       15.28082
C         43.38413        8.47860       14.91496
C         44.86609       10.51850       14.62333
C         42.16297        9.27947       15.37825
H         45.83864        6.79508       16.42222
H         45.86695        8.15116       13.70591
H         44.80462        9.24303       16.38595
H         43.31196        7.47993       15.39498
H         43.31810        8.33802       13.81342
H         45.84029       10.98960       14.82771
H         44.75696       10.44351       13.52090
H         44.09935       11.21513       15.01813
H         42.18834        9.42340       16.47877
H         42.10429       10.26652       14.87657
H         41.23834        8.72414       15.11327
N         47.69383        8.84823       16.50488
C         49.04388        9.27523       16.88309
C         49.30047       10.76210       16.66160
O         50.45128       11.16736       16.73894
C         49.34089        8.90954       18.34360
O         48.46472        9.59215       19.20087
H         47.05373        8.51600       17.24141
H         49.76067        8.69910       16.25437
H         50.39065        9.17260       18.60007
H         49.21993        7.80568       18.45116
H         48.33474        9.01304       19.99595
N         48.28688       11.62876       16.37407
C         48.46258       13.04062       16.04888
C         49.37931       13.18618       14.84726
O         50.32611       13.96249       14.88131
C         48.93916       13.84175       17.26926
H         47.32669       11.27149       16.34737
H         47.46500       13.44130       15.76006
H         48.22086       13.71603       18.10660
H         49.94175       13.50685       17.60705
H         48.99500       14.92259       17.01735
N         49.17878       12.39270       13.76115
C         50.07462       12.35892       12.61547
C         49.29478       12.14892       11.33800
O         48.27082       11.47872       11.37325
C         51.06276       11.20408       12.79633
H         48.43172       11.68283       13.81650
H         50.67456       13.29280       12.54379
H         50.52919       10.23835       12.89876
H         51.75629       11.14578       11.93015
H         51.66414       11.36452       13.71657
N         49.75520       12.64614       10.15003
C         49.14489       12.35778        8.85084
C         47.71500       12.89109        8.73296
O         47.07880       12.64117        7.71915
C         49.24169       10.83812        8.61554
C         48.98797       10.33159        7.18303
C         49.17781        8.85372        7.24473
O         50.08219        8.28767        6.65256
O         48.40233        8.19637        8.11142
H         50.62397       13.20163       10.15213
H         49.76070       12.84261        8.06282
H         48.54788       10.32322        9.31148
H         50.28091       10.52800        8.87462
H         49.70864       10.78971        6.47437
H         47.95162       10.53676        6.84621
N         47.14165       13.65339        9.70998
C         45.77781       14.12329        9.61858
H         45.08370       13.25654        9.58496
H         45.53164       14.73759       10.51117
H         45.64772       14.74501        8.70858
H         47.67076       13.92798       10.54747
Ca        49.00724        6.54760        9.45150
O         49.93981        4.47606        7.59013
H         49.73676        5.30029        7.08032
H         50.89610        4.55781        7.83013
O         48.87637        8.72615       11.35581
H         47.91400        8.75599       11.58569
H         49.31889        8.39523       12.17453
O         48.78276        6.03873       12.78771
H         48.61158        5.89663       13.75179
H         48.59261        5.16917       12.35856
O         51.59211        6.99017       12.04562
H         51.60160        7.24911       13.00117
H         52.02739        6.10158       12.02233
O         52.06203        6.98492        8.97136
H         52.72660        7.44401        9.54363
H         52.28583        7.27412        8.05161

Ca 1.0



