%chk=apoCaM-CA-Ng.loop2.water2.frame879.chk
%nprocshared=20
%mem=10GB
%nosave
#b3lyp/svp scf=(tight,noincore,xqc) Test 
#IOP(5/87=12) Density=Current Pop=(MK,readradii) iop(6/33=2) iop(6/42=6)

apoCaM-CA-Ng.loop2.water2.frame879 

   -2  1 
C          8.28440       90.96052        9.94305
C          7.39223       92.08662       10.37447
O          6.18063       91.93151       10.31525
H          9.35648       91.22195       10.06477
H          8.06999       90.06553       10.56516
H          8.09344       90.71738        8.87757
N          7.92153       93.25586       10.83525
C          7.09683       94.35477       11.32465
C          6.30290       93.87053       12.52030
O          5.08155       93.92363       12.49319
C          7.98788       95.56357       11.70791
C          7.22615       96.78291       12.16755
O          6.00587       96.79412       12.21497
O          7.90901       97.88606       12.52725
H          8.94835       93.35731       10.85582
H          6.41069       94.68271       10.51100
H          8.58661       95.85900       10.81991
H          8.69618       95.27222       12.51262
N          6.95868       93.36579       13.60177
C          6.29582       92.84700       14.78859
C          7.35773       92.45172       15.81108
O          8.15364       91.58113       15.48422
C          5.44473       91.60881       14.46027
H          7.99017       93.36098       13.57656
H          5.60351       93.61669       15.16107
H          4.96023       91.23153       15.38709
H          4.63844       91.84604       13.73817
H          6.07267       90.79971       14.02976
N          7.46999       92.98091       17.06487
C          6.62979       94.01861       17.65439
C          7.47308       95.10431       18.31498
O          8.68040       94.95336       18.44087
C          5.59164       93.37712       18.60379
C          6.18120       92.42037       19.60892
O          6.73416       91.39478       19.24364
O          6.07940       92.67692       20.91975
H          8.20357       92.57763       17.66821
H          6.06409       94.56318       16.88304
H          4.86565       92.79519       17.99512
H          5.02517       94.18085       19.12166
N          6.89018       96.28695       18.66664
C          7.63201       97.43563       19.16563
C          6.87868       98.11633       20.28219
O          6.40446       99.22133       20.05813
H          5.88793       96.42097       18.45911
H          7.69396       98.16302       18.32594
H          8.67173       97.18806       19.46456
N          6.66697       97.55800       21.50390
C          7.22370       96.29531       21.96966
C          8.68257       96.50757       22.36219
O          8.94355       97.39841       23.15922
C          6.36877       95.82102       23.16855
C          6.69006       94.44796       23.67942
N          5.92305       93.90117       24.64964
O          7.61997       93.81605       23.21300
H          6.06797       98.08903       22.15799
H          7.10945       95.51700       21.18451
H          5.31146       95.78356       22.82475
H          6.44001       96.54403       24.00942
H          5.12402       94.41894       25.04086
H          6.10962       92.95583       25.00459
N          9.68299       95.72596       21.85711
C         11.09753       95.94003       22.15887
C         11.71719       94.84768       23.01368
O         12.90665       94.93739       23.28382
H          9.43879       94.94709       21.22852
H         11.24992       96.89253       22.71002
H         11.64995       96.02298       21.19854
N         10.97804       93.82234       23.52027
C         11.49252       92.79735       24.42585
C         11.27960       91.41492       23.83142
O         10.72798       91.30328       22.74463
C         10.75870       92.91803       25.79102
C         11.08874       94.23696       26.49489
O          9.37140       92.82326       25.59399
H          9.98111       93.77415       23.29067
H         12.58439       92.91879       24.59976
H         11.09610       92.09824       26.46344
H          8.96451       92.60194       26.47185
H         12.18068       94.29891       26.68857
H         10.77387       95.10736       25.88269
H         10.55995       94.28104       27.47129
N         11.66021       90.30381       24.52474
C         11.36611       88.94769       24.08491
C         10.29413       88.42200       25.01010
O         10.50978       88.36200       26.21396
C         12.63793       88.05518       24.07836
C         12.27287       86.61553       23.61916
C         13.70845       88.67940       23.16414
C         13.43967       85.62872       23.65525
H         12.10813       90.41691       25.44700
H         10.96192       88.95539       23.04844
H         13.04719       88.00912       25.11250
H         11.85145       86.63979       22.58973
H         11.49926       86.20437       24.30004
H         13.96463       89.70371       23.50706
H         14.64951       88.09508       23.19074
H         13.34350       88.73501       22.11617
H         13.07346       84.62129       23.36291
H         14.23697       85.91417       22.94069
H         13.86023       85.56852       24.68116
N          9.08522       88.06536       24.50189
C          7.94526       87.67662       25.31575
C          7.56936       86.22989       25.10450
O          6.60636       85.79229       25.71764
C          6.80107       88.66000       25.03074
C          7.24385       90.01405       25.50110
O          7.48051       90.19158       26.68605
O          7.46349       91.02319       24.64587
H          8.94280       88.10344       23.48054
H          8.18382       87.73934       26.40235
H          5.87774       88.38347       25.58388
H          6.57694       88.66896       23.94247
N          8.37264       85.39022       24.38457
C          8.23971       83.94892       24.46311
C          8.41568       83.31485       23.09103
O          9.53349       83.31499       22.59519
C          9.35429       83.47485       25.42063
C          9.34905       81.99955       25.69104
C         10.41607       81.20134       25.24891
C          8.29904       81.41441       26.41512
C         10.42985       79.83315       25.52444
C          8.32154       80.04606       26.69766
C          9.38537       79.25589       26.25146
H          9.21967       85.75287       23.92839
H          7.26019       83.67259       24.90368
H          9.26303       84.00258       26.39619
H         10.33407       83.78121       24.98866
H         11.23567       81.63750       24.69028
H          7.47598       82.02006       26.77480
H         11.25400       79.22343       25.17848
H          7.51720       79.59986       27.26720
H          9.40274       78.19720       26.47159
N          7.38029       82.73713       22.40711
C          7.55492       81.98262       21.17365
C          7.95258       82.82785       19.97267
O          8.15947       82.24531       18.91617
C          6.20065       81.28688       20.99469
C          5.24510       82.30772       21.57313
C          5.99518       82.76043       22.82549
H          8.33387       81.19851       21.30311
H          5.97774       80.92830       19.96693
H          6.16745       80.40972       21.68142
H          5.20384       83.16083       20.85677
H          4.21017       81.95134       21.75996
H          5.64202       83.77935       23.09863
H          5.86728       82.05752       23.67766
N          8.10769       84.18270       20.03958
C          8.55302       84.97338       18.89402
C          9.98607       84.65642       18.46223
O         10.39791       85.17231       17.43231
C          8.40232       86.48515       19.17902
C          9.32633       87.00697       20.29607
C          9.05476       88.45847       20.55543
O          7.83538       88.84916       20.97242
O          9.93540       89.28841       20.40037
H          7.86732       84.66935       20.91265
H          7.87285       84.73552       18.04536
H          7.34098       86.67527       19.45263
H          8.61731       87.05496       18.24732
H         10.38886       86.87146       19.99687
H          9.16097       86.45646       21.24420
N         10.80827       83.84558       19.19420
C         12.17130       83.53269       18.81203
H         12.86376       83.87528       19.60958
H         12.27647       82.43351       18.69571
H         12.46986       84.01500       17.85797
H         10.48000       83.43005       20.07508
Ca         7.01913       91.31897       22.46222
O          4.56718       89.59913       21.85902
H          4.64189       88.74710       22.35753
H          4.46383       90.28875       22.56221
O          9.92508       92.32419       20.22316
H          9.12179       92.84276       19.97139
H         10.39037       92.14887       19.36736

Ca 1.0



