%chk=apoCaM-CA-Ng.loop1.water5.frame400.chk
%nprocshared=20
%mem=10GB
%nosave
#b3lyp/svp scf=(tight,noincore,xqc) Test 
#IOP(5/87=12) Density=Current Pop=(MK,readradii) iop(6/33=2) iop(6/42=6)

apoCaM-CA-Ng.loop1.water5.frame400 

   0  1 
C         81.54231       92.79884       -4.72165
C         81.47475       91.47353       -5.42634
O         82.50644       90.99242       -5.87210
H         81.92352       93.58324       -5.40861
H         80.54697       93.11172       -4.34123
H         82.23290       92.71022       -3.85637
N         80.28534       90.82483       -5.57608
C         80.16883       89.49739       -6.17336
C         79.73392       89.57838       -7.63344
O         79.18217       88.61161       -8.13028
C         79.14871       88.64373       -5.37464
C         79.46848       88.52471       -3.91020
O         79.44042       89.61234       -3.11617
O         79.70474       87.43114       -3.42232
H         79.42390       91.28299       -5.23823
H         81.14096       88.95894       -6.13454
H         79.12809       87.62119       -5.81361
H         78.12907       89.07797       -5.47331
N         79.91335       90.70165       -8.38420
C         79.33886       90.85781       -9.71817
C         80.36459       91.26046      -10.77062
O         81.15856       92.14295      -10.47634
C         78.25171       91.93774       -9.60324
C         77.02744       91.37333       -8.85287
C         75.91282       92.38734       -8.56321
C         75.63904       93.36348       -9.71568
N         74.44406       94.16223       -9.45096
H         80.38395       91.51975       -7.96989
H         78.85703       89.93059      -10.04853
H         77.91526       92.22890      -10.61980
H         78.66499       92.84218       -9.10480
H         77.31427       90.92085       -7.87848
H         76.61136       90.56214       -9.48806
H         76.18621       92.99314       -7.67232
H         74.99876       91.80349       -8.31354
H         75.51183       92.82340      -10.67881
H         76.51864       94.04175       -9.80212
H         74.41234       94.96272      -10.12243
H         73.59480       93.56802       -9.59046
H         74.45351       94.53826       -8.47490
N         80.37196       90.78195      -12.06596
C         79.48003       89.78090      -12.68053
C         78.01267       90.09951      -12.46755
O         77.33606       89.37174      -11.75968
C         79.86222       88.34420      -12.26149
C         81.21536       87.97539      -12.78717
O         81.87485       88.82341      -13.60742
O         81.71434       86.91054      -12.46601
H         81.06250       91.20804      -12.70468
H         79.63197       89.79356      -13.78212
H         79.15522       87.61117      -12.69991
H         79.84571       88.24157      -11.15816
N         77.40861       91.16787      -13.04047
C         78.03891       92.02154      -14.03343
C         77.16870       93.21784      -14.34829
O         76.27199       93.52210      -13.57275
H         76.42088       91.32485      -12.78933
H         78.21932       91.41000      -14.94228
H         79.00993       92.41697      -13.66533
N         77.38712       94.02247      -15.42102
C         78.34176       93.76273      -16.49835
C         77.84131       92.65856      -17.44069
O         76.73904       92.15968      -17.25336
C         78.64167       95.07667      -17.27838
C         77.45640       95.75677      -17.93256
O         76.48436       96.32757      -17.19416
O         77.41638       95.87136      -19.14619
H         76.80765       94.86806      -15.45786
H         79.31012       93.44390      -16.05558
H         79.39465       94.85572      -18.06262
H         79.11243       95.80653      -16.58555
N         78.59411       92.26437      -18.51565
C         78.11088       91.33641      -19.53113
C         78.06614       89.88264      -19.11114
O         77.47090       89.10764      -19.84722
H         79.50248       92.71705      -18.68570
H         78.75255       91.39328      -20.43562
H         77.09089       91.66292      -19.83556
N         78.65257       89.42594      -17.96594
C         78.46025       88.06648      -17.47584
C         77.64427       88.18798      -16.21115
O         78.17011       88.21451      -15.11028
C         79.75935       87.24945      -17.30630
C         80.45941       87.02021      -18.65171
O         79.42202       85.99214      -16.77725
H         79.18413       90.07785      -17.37054
H         77.85254       87.46171      -18.18856
H         80.43313       87.78945      -16.60537
H         80.23970       85.61974      -16.35562
H         79.78243       86.48286      -19.35352
H         80.76839       87.98094      -19.10879
H         81.36165       86.38798      -18.50235
N         76.30048       88.29829      -16.35422
C         75.30052       88.45911      -15.29487
C         75.25671       87.30340      -14.26430
O         74.44369       87.36741      -13.35356
C         73.89915       88.68655      -15.98054
C         73.47585       87.48343      -16.89424
C         73.92010       90.02345      -16.76223
C         72.16746       87.69360      -17.66170
H         75.98185       88.30055      -17.33006
H         75.54945       89.37713      -14.71775
H         73.13198       88.80828      -15.18578
H         73.37635       86.57463      -16.26508
H         74.22758       87.25607      -17.67501
H         74.21933       90.85367      -16.08822
H         74.62096       90.00479      -17.62255
H         72.91295       90.27830      -17.14885
H         71.32841       87.89767      -16.96806
H         72.26431       88.52623      -18.39133
H         71.93784       86.78134      -18.25413
N         76.08105       86.22032      -14.35507
C         76.02432       85.00840      -13.52138
C         76.38478       85.12934      -12.02645
O         76.21962       84.13534      -11.33337
C         76.94898       83.93769      -14.16930
C         78.44052       84.33543      -14.09495
O         76.56828       83.77705      -15.51360
H         76.71367       86.19193      -15.15663
H         74.97797       84.63653      -13.57543
H         76.81301       82.96933      -13.63669
H         76.95152       82.91847      -15.82788
H         78.62875       85.34194      -14.51399
H         78.79390       84.35374      -13.04802
H         79.06239       83.60553      -14.65284
N         76.92293       86.25158      -11.46809
C         77.36986       86.38248      -10.06317
C         78.51702       85.41371       -9.73432
O         78.83011       84.57045      -10.56111
C         76.19434       86.22066       -9.05577
C         75.00779       87.11890       -9.41864
O         76.63042       86.55355       -7.76169
H         77.05287       87.05928      -12.08315
H         77.77023       87.41277       -9.95170
H         75.85556       85.16015       -9.06699
H         75.94023       86.23304       -7.12353
H         74.60404       86.84820      -10.41580
H         74.19361       86.97921       -8.67533
H         75.31377       88.18599       -9.42011
N         79.22159       85.49374       -8.55915
C         80.29974       84.56083       -8.22297
C         81.67710       85.16529       -8.46455
O         82.65987       84.44116       -8.38574
C         80.18924       84.06356       -6.75904
C         78.74051       83.76882       -6.34379
C         78.65865       82.90471       -5.08220
C         77.19244       82.72402       -4.66151
N         77.06160       81.70818       -3.61911
H         79.01778       86.24551       -7.89094
H         80.21183       83.67218       -8.88524
H         80.58213       84.82399       -6.04488
H         80.82580       83.15516       -6.67049
H         78.22128       83.22019       -7.15711
H         78.22057       84.73991       -6.17672
H         79.23403       83.34872       -4.23970
H         79.09875       81.91428       -5.33123
H         76.58680       82.40608       -5.53860
H         76.79169       83.69733       -4.29640
H         77.40779       80.78917       -3.98071
H         77.60272       81.98173       -2.76792
H         76.05122       81.60598       -3.36953
N         81.82173       86.49302       -8.74253
C         83.09372       87.16638       -8.97789
C         84.05619       86.92889       -7.83211
O         83.74396       87.26725       -6.69876
C         82.81833       88.67784       -9.17569
C         84.04665       89.59301       -9.25419
C         85.02324       89.17957      -10.30792
O         86.17817       88.92722      -10.01139
O         84.62893       89.06721      -11.58051
H         80.97874       87.07541       -8.77289
H         83.54141       86.76659       -9.91439
H         82.22614       89.04853       -8.31727
H         82.19902       88.79698      -10.09230
H         84.55833       89.60828       -8.26847
H         83.68815       90.62357       -9.46874
N         85.26492       86.34773       -8.08252
C         86.25968       86.07999       -7.06626
H         87.18997       86.63469       -7.31147
H         85.92231       86.38226       -6.05372
H         86.48581       84.99303       -7.05529
H         85.50638       86.08263       -9.04985
Ca        84.08528       88.85140      -13.71783
O         86.57425       90.97854      -13.31732
H         87.53045       90.73197      -13.38824
H         86.39102       90.97554      -12.34474
O         87.28772       87.80775      -12.94487
H         86.68993       87.65173      -12.17424
H         88.19054       87.84770      -12.54341
O         84.87537       86.02218      -13.12895
H         83.96059       86.38556      -13.07341
H         85.09296       85.78591      -12.19345
O         83.48304       87.83500      -16.39292
H         82.71505       87.29593      -16.07737
H         83.12335       88.37293      -17.14195
O         86.54257       88.87040      -15.72344
H         86.49510       88.96011      -16.70803
H         87.47036       89.12973      -15.49465

Ca 1.0



