%chk=apoCaM-CA-Ng.loop2.water3.frame808.chk
%nprocshared=20
%mem=10GB
%nosave
#b3lyp/svp scf=(tight,noincore,xqc) Test 
#IOP(5/87=12) Density=Current Pop=(MK,readradii) iop(6/33=2) iop(6/42=6)

apoCaM-CA-Ng.loop2.water3.frame808 

   -2  1 
C        100.65301       93.80446       82.03976
C        100.37332       95.19293       82.53623
O        100.63852       95.46681       83.69775
H        101.73858       93.59027       82.13636
H        100.08082       93.06892       82.64161
H        100.36848       93.68943       80.97244
N         99.85966       96.13441       81.69620
C         99.61405       97.51584       82.08343
C        100.58664       98.37646       81.30416
O        100.18954       99.17930       80.47019
C         98.12837       97.86041       81.84355
C         97.74326       99.24437       82.30848
O         96.58886       99.61894       82.18188
O         98.64480      100.07158       82.87520
H         99.66947       95.87444       80.71547
H         99.81837       97.67254       83.16623
H         97.50479       97.13445       82.40978
H         97.88979       97.75638       80.76277
N        101.91674       98.22618       81.55189
C        102.97346       98.94449       80.85485
C        103.94219       97.93955       80.22894
O        103.84968       96.76239       80.55142
C        103.67959       99.82924       81.89583
H        102.19938       97.56520       82.29327
H        102.54015       99.57991       80.05241
H        104.51501      100.42682       81.49470
H        102.94414      100.53879       82.33211
H        104.08797       99.20062       82.71574
N        104.90756       98.27873       79.32392
C        105.04378       99.59127       78.70035
C        104.05928       99.76394       77.55597
O        103.38546       98.81432       77.18074
C        106.51239       99.85631       78.29198
C        107.10148       98.91148       77.27431
O        106.44349       98.01587       76.76910
O        108.39155       99.06109       76.92105
H        105.51355       97.51558       78.98702
H        104.80066      100.37384       79.43331
H        107.13569       99.78966       79.21000
H        106.60608      100.88925       77.89463
N        103.88414      100.99585       77.00329
C        102.92247      101.29585       75.95213
C        101.81548      102.16739       76.50232
O        101.76926      102.36633       77.70941
H        104.42351      101.78825       77.38538
H        102.46158      100.37768       75.53170
H        103.46328      101.82306       75.13852
N        100.87249      102.75715       75.71524
C        100.82576      102.70808       74.25570
C        100.49003      101.31853       73.74328
O         99.46501      100.77666       74.13587
C         99.75928      103.71577       73.75876
C         99.72395      103.84993       72.25313
N        100.01361      105.03200       71.66034
O         99.41964      102.88939       71.56184
H        100.17345      103.34410       76.20024
H        101.80228      103.05655       73.85271
H         99.99833      104.70859       74.19989
H         98.74969      103.42351       74.12359
H        100.26883      105.85866       72.22006
H         99.98440      105.12221       70.63412
N        101.26328      100.71668       72.79247
C        100.86191       99.45647       72.18519
C        101.80430       99.01775       71.08741
O        101.38190       98.91280       69.94455
H        102.11195      101.19700       72.45467
H         99.84725       99.58568       71.74663
H        100.81341       98.66210       72.96029
N        103.09704       98.71575       71.37846
C        104.07164       98.24005       70.40229
C        104.52580       96.80083       70.77797
O        104.88151       96.67447       72.13331
C        105.23972       99.25718       70.27377
C        104.77740      100.56485       69.62547
O        105.78557       99.54286       71.53211
H        103.40470       98.81871       72.35408
H        103.61859       98.14714       69.39011
H        106.01700       98.81932       69.60444
H        106.70557       99.88180       71.37356
H        104.00294      101.06247       70.24506
H        105.64398      101.25263       69.51764
H        104.36758      100.36641       68.61224
N        105.59993       96.32990       69.88900
C        106.10073       94.96723       70.15144
C        107.59732       95.02091       69.92700
O        108.02108       95.30726       68.81499
C        105.43699       93.89304       69.22917
C        106.01876       92.46857       69.45204
C        103.90517       93.88161       69.35976
C        105.78346       91.87170       70.84440
H        105.36107       96.46435       68.87808
H        105.91091       94.69442       71.21038
H        105.66380       94.16138       68.17243
H        107.11072       92.49108       69.26253
H        105.57460       91.77789       68.70235
H        103.58874       93.65903       70.39892
H        103.47999       94.86341       69.06730
H        103.47230       93.11927       68.67637
H        104.69988       91.75878       71.05170
H        106.24300       90.86184       70.89217
H        106.24969       92.49299       71.63417
N        108.45723       94.80205       70.96014
C        109.90372       94.93457       70.84349
C        110.64740       93.65595       71.19233
O        111.85880       93.66136       71.01569
C        110.37207       96.05583       71.79162
C        109.97916       97.42564       71.31644
O        110.51867       97.89964       70.32998
O        109.09197       98.17095       71.99698
H        108.06729       94.58114       71.88801
H        110.19976       95.18586       69.80074
H        111.47991       96.07004       71.88509
H        109.95701       95.85527       72.80282
N        110.04826       92.54501       71.72302
C        110.84494       91.37895       72.10054
C        110.06936       90.41558       72.99559
O        108.93377       90.10090       72.66471
C        111.40634       90.61335       70.87061
C        110.38105       89.72370       70.20111
C        109.25785       90.25893       69.55184
C        110.53354       88.32539       70.26750
C        108.29886       89.40768       68.98954
C        109.57438       87.48052       69.70730
C        108.45567       88.02051       69.07082
H        109.04107       92.55535       71.93459
H        111.71073       91.77220       72.67148
H        112.22235       89.96460       71.25680
H        111.87613       91.29627       70.13290
H        109.12275       91.32899       69.49121
H        111.38658       87.88550       70.77016
H        107.42930       89.82107       68.49665
H        109.69659       86.40690       69.77529
H        107.71040       87.36242       68.64345
N        110.63274       89.82959       74.10018
C        109.98434       88.76818       74.86202
C        108.69993       89.13898       75.58500
O        108.13503       88.25912       76.22106
C        111.05487       88.33937       75.87112
C        112.32772       88.59278       75.09339
C        112.02769       89.95242       74.47839
H        109.78127       87.93570       74.15004
H        111.06046       89.04836       76.73126
H        110.93035       87.30559       76.25834
H        113.26362       88.55423       75.68896
H        112.38927       87.83936       74.27319
H        112.12113       90.75965       75.23842
H        112.72929       90.11352       73.63440
N        108.17240       90.39924       75.55314
C        106.94633       90.75309       76.26654
C        105.71634       89.98033       75.79526
O        104.68650       90.09409       76.44679
C        106.67417       92.27430       76.18814
C        106.37445       92.77556       74.76225
C        106.11832       94.25370       74.76980
O        105.08763       94.76104       75.47272
O        106.84108       95.00331       74.13629
H        108.68111       91.14053       75.05520
H        107.11308       90.50062       77.33780
H        107.56009       92.81547       76.58828
H        105.80756       92.51523       76.84320
H        105.47592       92.26723       74.35233
H        107.23170       92.55745       74.09069
N        105.72560       89.19124       74.68260
C        104.55556       88.45074       74.26404
H        103.71497       89.14809       74.06274
H        104.77837       87.88206       73.33643
H        104.26008       87.73192       75.05820
H        106.57075       89.10942       74.10157
Ca       107.03809       97.36621       72.42496
O        109.08922       96.92805       75.04785
H        110.05295       97.15072       75.09353
H        108.91516       96.40426       75.86977
O        107.37795      100.23478       74.44773
H        107.47695      100.65312       73.55736
H        106.78958      100.85311       74.95018
O        104.82082       98.60128       74.49402
H        104.59371       99.54940       74.32267
H        103.94773       98.15580       74.63322

Ca 1.0



