%chk=apoCaM-CA-Ng.loop2.water5.frame251.chk
%nprocshared=20
%mem=10GB
%nosave
#b3lyp/svp scf=(tight,noincore,xqc) Test 
#IOP(5/87=12) Density=Current Pop=(MK,readradii) iop(6/33=2) iop(6/42=6)

apoCaM-CA-Ng.loop2.water5.frame251 

   -2  1 
C         40.48890       22.91485       -5.83353
C         41.44291       22.03663       -6.58593
O         41.97764       22.46235       -7.60027
H         39.49225       22.42748       -5.79021
H         40.86049       23.07081       -4.79980
H         40.38278       23.90181       -6.33278
N         41.70086       20.77632       -6.13789
C         42.59772       19.85623       -6.82740
C         42.05853       19.58414       -8.21819
O         40.91376       19.16945       -8.34471
C         42.73860       18.54399       -6.02209
C         43.76026       17.57996       -6.57710
O         43.97669       16.41402       -5.93991
O         44.40910       17.84170       -7.57817
H         41.23365       20.46384       -5.27201
H         43.60803       20.32120       -6.88074
H         41.75304       18.03345       -5.96341
H         43.06175       18.79809       -4.98926
N         42.83643       19.80166       -9.31333
C         42.33877       19.62359      -10.66784
C         41.34276       20.72181      -10.99138
O         41.71545       21.88622      -10.93218
C         43.49797       19.66953      -11.67270
H         43.81683       20.09331       -9.17511
H         41.87957       18.61380      -10.76334
H         44.22618       18.86137      -11.44369
H         43.11653       19.50862      -12.70422
H         44.02784       20.64508      -11.63197
N         40.07072       20.42592      -11.38488
C         39.14820       21.44512      -11.88490
C         39.38565       21.60198      -13.38526
O         40.06467       20.76951      -13.97364
C         37.69134       21.07437      -11.45746
C         36.58798       21.92311      -12.04650
O         36.39570       21.87365      -13.25044
O         35.74888       22.69031      -11.30853
H         39.81570       19.43272      -11.50240
H         39.40237       22.43016      -11.43507
H         37.63506       21.10688      -10.35169
H         37.47911       20.02820      -11.76970
N         38.91418       22.69243      -14.05687
C         39.12821       22.90510      -15.48099
C         39.80532       24.22334      -15.81277
O         39.95413       24.48162      -16.99897
H         38.36656       23.39884      -13.54344
H         38.13342       22.90501      -15.97608
H         39.72547       22.08481      -15.93392
N         40.20747       25.12255      -14.86039
C         40.73850       26.44360      -15.19435
C         42.11294       26.67163      -14.58039
O         42.26171       26.58253      -13.37022
C         39.75795       27.52357      -14.68950
C         40.13405       28.93581      -15.09538
N         39.38413       29.97846      -14.67464
O         41.10537       29.14848      -15.80672
H         40.08122       24.90157      -13.86232
H         40.80434       26.56603      -16.29809
H         39.69470       27.46731      -13.58173
H         38.74755       27.31553      -15.10371
H         38.56221       29.82558      -14.07303
H         39.63151       30.94185      -14.94642
N         43.15245       27.04748      -15.37451
C         44.46133       27.44028      -14.88042
C         44.40156       28.71926      -14.06762
O         43.75605       29.66546      -14.49682
H         43.00437       27.10145      -16.39398
H         45.09548       27.66873      -15.76434
H         44.94871       26.61091      -14.32437
N         45.15081       28.85631      -12.93626
C         45.26098       30.12556      -12.21494
C         44.04899       30.41118      -11.34061
O         43.72135       31.57710      -11.16730
C         46.59582       30.25769      -11.42756
C         46.80880       29.21701      -10.31882
O         47.68987       30.24994      -12.31225
H         45.75681       28.06889      -12.66676
H         45.32320       30.94569      -12.96743
H         46.59125       31.25667      -10.93664
H         47.75883       29.34360      -12.70997
H         46.87175       28.18869      -10.72619
H         47.76088       29.43509       -9.78902
H         45.98869       29.25329       -9.58314
N         43.36540       29.40675      -10.72182
C         42.20426       29.62845       -9.85634
C         40.99119       28.87309      -10.37300
O         41.09624       28.12625      -11.33513
C         42.50538       29.16841       -8.38946
C         42.95676       27.68241       -8.32925
C         43.51000       30.11514       -7.71634
C         42.93577       27.09721       -6.91763
H         43.68398       28.43744      -10.86828
H         41.92134       30.70425       -9.83558
H         41.57177       29.26100       -7.79743
H         43.97445       27.57074       -8.76117
H         42.25789       27.05790       -8.92580
H         43.11748       31.15425       -7.73679
H         43.66441       29.84555       -6.65243
H         44.48534       30.10312       -8.23168
H         43.23970       26.02952       -6.95993
H         43.63262       27.62800       -6.24052
H         41.90515       27.14835       -6.50444
N         39.80979       28.97757       -9.70162
C         38.66490       28.11534       -9.93532
C         37.41862       28.93681      -10.23425
O         36.80841       28.71050      -11.26930
C         38.50715       27.23511       -8.68575
C         37.46299       26.18393       -8.86024
O         36.42360       26.14574       -8.01732
O         37.56609       25.34385       -9.74016
H         39.75143       29.63152       -8.90738
H         38.85926       27.43091      -10.79277
H         38.27055       27.86589       -7.80044
H         39.46945       26.71341       -8.48483
N         37.01110       29.93866       -9.39559
C         35.87613       30.81505       -9.67686
C         35.00451       30.99544       -8.42972
O         35.55634       31.37046       -7.40404
C         36.40454       32.20685      -10.09082
C         35.25399       33.12400      -10.44292
C         34.47848       32.88375      -11.59127
C         34.92211       34.20181       -9.60542
C         33.37927       33.69578      -11.88431
C         33.81979       35.00975       -9.90057
C         33.04711       34.75510      -11.03677
H         37.57985       30.14759       -8.56215
H         35.29566       30.41922      -10.53227
H         37.08796       32.12938      -10.96453
H         36.99425       32.62541       -9.24520
H         34.71584       32.05819      -12.25123
H         35.49991       34.40161       -8.71196
H         32.77955       33.49743      -12.76339
H         33.55887       35.82804       -9.24251
H         32.18975       35.37688      -11.25917
N         33.63884       30.85435       -8.43760
C         32.78266       31.17738       -7.29956
C         33.14299       30.40763       -6.05141
O         33.26702       31.00632       -4.99205
C         31.37660       30.79908       -7.77683
C         31.47205       31.09158       -9.25464
C         32.83612       30.49752       -9.59060
H         32.83253       32.27646       -7.11842
H         31.21943       29.70074       -7.68519
H         30.55837       31.32131       -7.23525
H         30.63328       30.70591       -9.87072
H         31.52965       32.19903       -9.38002
H         32.79921       29.38873       -9.66774
H         33.16607       30.94177      -10.54325
N         33.37015       29.06644       -6.12971
C         33.75610       28.23384       -4.99558
C         34.98811       28.81839       -4.32728
O         34.93268       29.11952       -3.14258
C         34.06529       26.79075       -5.46485
C         32.86292       26.04312       -6.07681
C         33.31995       24.75286       -6.71494
O         32.88920       23.67640       -6.33556
O         34.20705       24.82043       -7.73235
H         33.30832       28.63369       -7.06264
H         32.92451       28.20464       -4.25572
H         34.44434       26.19019       -4.60881
H         34.87051       26.85815       -6.22124
H         32.38822       26.64195       -6.88044
H         32.09956       25.86179       -5.28898
N         36.12963       29.03621       -5.03757
C         37.30786       29.62126       -4.43679
H         38.11089       29.71992       -5.19778
H         37.06924       30.63168       -4.04034
H         37.67348       28.97565       -3.61057
H         36.16178       28.79722       -6.03995
Ca        35.25212       23.37048       -9.17654
O         38.22399       22.51647       -8.24033
H         39.02448       22.68778       -8.79715
H         38.28246       21.55482       -8.01048
O         35.27299       20.49161       -7.99700
H         34.84603       20.16901       -8.83014
H         34.53560       20.52574       -7.33693
O         32.35348       22.10521       -9.49332
H         31.52623       21.59082       -9.31825
H         32.66738       22.37527       -8.59503
O         34.55857       25.64306      -11.22259
H         35.48881       25.88453      -11.46042
H         34.31593       26.27239      -10.49772
O         36.17778       23.07513       -6.01843
H         36.06035       22.20374       -5.56344
H         35.80822       23.73913       -5.38381

Ca 1.0



