%chk=apoCaM-CA-Ng.loop1.water3.frame1467.chk
%nprocshared=20
%mem=10GB
%nosave
#b3lyp/svp scf=(tight,noincore,xqc) Test 
#IOP(5/87=12) Density=Current Pop=(MK,readradii) iop(6/33=2) iop(6/42=6)

apoCaM-CA-Ng.loop1.water3.frame1467 

   0  1 
C         38.68248       57.93772       79.40697
C         38.83872       59.27195       78.73966
O         39.92475       59.55435       78.25304
H         37.65504       57.79751       79.80214
H         38.89991       57.12984       78.67798
H         39.39810       57.86407       80.25393
N         37.80304       60.16200       78.70778
C         37.92134       61.49813       78.12950
C         37.88626       62.52835       79.23892
O         37.09340       63.45989       79.22405
C         36.88239       61.72034       77.00854
C         35.43289       61.65956       77.43116
O         34.56267       61.81496       76.59019
O         35.07377       61.45105       78.71311
H         36.91755       59.89675       79.16158
H         38.91718       61.61117       77.66182
H         37.05047       60.94741       76.22766
H         37.06729       62.71595       76.54900
N         38.76429       62.38087       80.26312
C         38.85542       63.27071       81.40883
C         39.35277       64.65463       80.99934
O         38.68114       65.61133       81.35864
C         39.67647       62.61647       82.54870
C         38.99196       61.29308       82.97097
C         39.64296       60.59723       84.16628
C         38.89584       59.28060       84.45213
N         39.45012       58.58699       85.61156
H         39.39031       61.56311       80.23165
H         37.83660       63.39320       81.84475
H         39.68724       63.30751       83.42015
H         40.72606       62.42467       82.24248
H         39.00054       60.57706       82.12342
H         37.93152       61.50403       83.23408
H         39.58838       61.26332       85.05450
H         40.70889       60.37663       83.94149
H         38.96612       58.61531       83.56130
H         37.81888       59.49301       84.63898
H         39.34720       59.18164       86.46537
H         38.92229       57.69523       85.75538
H         40.45812       58.36231       85.44951
N         40.43721       64.89706       80.19680
C         41.29359       63.89038       79.57201
C         40.92248       63.74804       78.09895
O         40.08615       64.49876       77.61317
C         42.78054       64.26358       79.76001
C         43.11016       65.54478       79.04587
O         42.96087       65.61075       77.70956
O         43.46685       66.52533       79.67211
H         40.60129       65.88065       79.92765
H         41.14664       62.90907       80.04800
H         43.43617       63.46143       79.35912
H         42.99009       64.36485       80.84822
N         41.47428       62.76651       77.33349
C         41.07316       62.54423       75.95212
C         41.66298       63.53396       74.97456
O         42.47826       64.36189       75.34252
H         42.12256       62.09469       77.77166
H         39.96589       62.54570       75.87973
H         41.43139       61.54258       75.63076
N         41.29362       63.45824       73.66760
C         41.91673       64.20719       72.57342
C         42.33898       63.20411       71.48861
O         42.00271       62.03562       71.63373
C         40.89092       65.22867       72.04174
C         40.52852       66.23359       73.10029
O         39.25558       66.33925       73.52623
O         41.38515       66.96605       73.57029
H         40.53225       62.80327       73.42706
H         42.82031       64.74574       72.93410
H         39.97604       64.69223       71.70699
H         41.28318       65.79656       71.18360
N         43.06198       63.50130       70.36696
C         43.66495       64.76655       69.98798
C         44.79625       65.14896       70.90470
O         45.66619       64.32550       71.14750
H         43.22950       62.72369       69.70795
H         42.91796       65.56958       69.86090
H         44.12806       64.62534       68.98675
N         44.90183       66.42139       71.37264
C         46.02125       66.87081       72.19496
C         45.88241       66.30712       73.59892
O         44.83839       66.48893       74.20501
C         46.10241       68.41461       72.21565
C         46.37489       68.96718       70.80494
O         47.15201       68.80538       73.06456
H         44.18903       67.10728       71.07963
H         46.97910       66.53034       71.73955
H         45.13792       68.81808       72.59462
H         47.03824       69.77638       73.23706
H         45.56602       68.69394       70.09666
H         46.44239       70.07478       70.83574
H         47.33657       68.56923       70.41325
N         46.91526       65.61278       74.16593
C         46.91258       64.97988       75.48775
C         46.70876       65.98832       76.60935
O         45.65655       66.60404       76.67651
C         45.86285       63.83285       75.59365
C         46.00317       62.84735       74.40727
C         46.00650       63.10289       76.94737
C         44.98128       61.70903       74.41485
H         47.78017       65.50653       73.61471
H         47.91263       64.50697       75.61801
H         44.85422       64.27915       75.55180
H         47.02612       62.41487       74.38455
H         45.84152       63.40915       73.46764
H         45.88790       63.80653       77.79565
H         45.21847       62.33562       77.07926
H         47.00403       62.61927       77.02367
H         45.13682       61.03260       75.27900
H         43.95000       62.11225       74.44081
H         45.09789       61.10441       73.49154
N         47.65500       66.15731       77.57384
C         47.45023       67.00629       78.74253
C         48.39679       68.19159       78.77609
O         48.29699       68.95277       79.72377
C         47.52456       66.16768       80.04756
C         48.88279       65.50264       80.28844
O         46.53705       65.16847       80.02304
H         48.54216       65.63813       77.49227
H         46.43122       67.45472       78.72719
H         47.34936       66.84761       80.91719
H         45.74866       65.52010       80.51261
H         49.69004       66.26267       80.33437
H         48.85846       64.95969       81.25769
H         49.11571       64.76453       79.49429
N         49.31373       68.44107       77.78635
C         50.17152       69.62711       77.80520
C         49.28345       70.86169       77.68679
O         48.82171       71.16231       76.59520
C         51.22132       69.55530       76.66571
C         52.20046       70.72889       76.70035
O         51.96184       68.36487       76.78618
H         49.40117       67.78248       77.00140
H         50.71870       69.62955       78.77476
H         50.69291       69.58420       75.68090
H         51.67452       67.75540       76.05595
H         52.76348       70.73026       77.65797
H         52.92486       70.63012       75.86346
H         51.66760       71.69563       76.58852
N         48.87720       71.51147       78.81840
C         47.81666       72.51700       78.89324
C         46.47998       72.00075       78.37591
O         46.44186       71.08845       77.56298
C         48.17812       73.85815       78.23899
C         49.36940       74.52325       78.94023
C         49.56496       75.95571       78.43245
C         50.69655       76.66187       79.18865
N         50.81797       78.05440       78.75889
H         49.27608       71.20739       79.71935
H         47.65663       72.71981       79.97725
H         47.29879       74.53075       78.35538
H         48.37840       73.73590       77.15272
H         50.29072       73.92068       78.78301
H         49.15834       74.57436       80.03169
H         48.62306       76.52398       78.60052
H         49.78625       75.94565       77.34304
H         51.65597       76.12876       79.00768
H         50.48294       76.64078       80.28114
H         51.59524       78.51030       79.28886
H         51.02810       78.09998       77.73564
H         49.92883       78.56863       78.95925
N         45.31664       72.51773       78.86723
C         44.00455       72.03408       78.45036
C         43.90552       70.52366       78.61010
O         43.60445       69.88510       77.61571
C         42.84590       72.74134       79.18550
C         42.75739       74.23675       78.85314
C         41.59856       74.86866       79.57070
O         40.45903       74.48164       79.36347
O         41.81200       75.86972       80.44556
H         45.37368       73.25159       79.58935
H         43.87219       72.25834       77.36593
H         42.93920       72.62465       80.27986
H         41.89234       72.26431       78.86397
H         42.61904       74.37196       77.75853
H         43.69250       74.75147       79.15628
N         44.17462       69.83748       79.75809
C         44.59642       70.41396       81.01458
H         45.54227       70.97675       80.89166
H         43.80546       71.05391       81.44139
H         44.78556       69.59875       81.74526
H         44.10753       68.81349       79.72440
Ca        43.02611       67.47244       76.44344
O         40.09350       67.57569       77.05432
H         40.07064       67.27450       76.11149
H         39.29050       67.16788       77.46463
O         44.60429       69.72869       74.93788
H         44.45682       70.49705       74.33128
H         45.52241       69.85656       75.28419
O         41.47557       69.84866       74.84278
H         40.70877       70.10046       75.41605
H         41.83216       70.71106       74.51210

Ca 1.0



