%chk=apoCaM-CA-Ng.loop3.water3.frame686.chk
%nprocshared=20
%mem=10GB
%nosave
#b3lyp/svp scf=(tight,noincore,xqc) Test 
#IOP(5/87=12) Density=Current Pop=(MK,readradii) iop(6/33=2) iop(6/42=6)

apoCaM-CA-Ng.loop3.water3.frame686 

   0  1 
C         -6.69140       81.84977       82.80293
C         -6.11686       83.15703       83.26295
O         -6.71930       84.19528       83.02934
H         -7.66082       82.00267       82.28291
H         -5.98262       81.34696       82.11358
H         -6.86610       81.19553       83.68475
N         -4.95750       83.16901       83.97488
C         -4.41471       84.38001       84.57714
C         -3.62919       85.17453       83.54182
O         -2.65074       84.66016       83.01718
C         -3.56803       83.97920       85.80177
C         -3.25202       85.10213       86.74725
O         -2.64535       84.85635       87.77690
O         -3.68300       86.35702       86.52539
H         -4.51993       82.25970       84.19480
H         -5.26479       84.97429       84.97128
H         -2.64453       83.46354       85.46818
H         -4.15988       83.25448       86.40234
N         -4.03362       86.42246       83.16358
C         -3.38308       87.18878       82.09351
C         -1.97204       87.64995       82.44857
O         -1.27075       88.09732       81.55182
C         -4.26424       88.38993       81.68626
C         -5.58680       87.90297       81.06728
C         -6.57001       89.05001       80.82639
C         -7.85045       88.51699       80.16683
N         -8.85015       89.57292       80.02300
H         -4.87808       86.80828       83.61020
H         -3.29036       86.52367       81.20514
H         -3.74547       89.02143       80.93134
H         -4.45865       89.01424       82.58293
H         -6.08812       87.17669       81.74086
H         -5.35842       87.38673       80.10836
H         -6.11065       89.82408       80.17394
H         -6.82323       89.51019       81.80711
H         -8.28063       87.69811       80.78634
H         -7.60032       88.10192       79.16446
H         -9.13159       89.92484       80.96714
H         -8.46854       90.35927       79.44943
H         -9.69350       89.17956       79.54594
N         -1.47956       87.55278       83.71470
C         -0.08854       87.82099       84.07515
C          0.51661       86.54067       84.62467
O          1.52242       86.09168       84.09244
C          0.06204       89.03211       85.02659
C         -0.74394       88.98647       86.28735
O         -0.13539       89.01587       87.48799
O         -1.95904       89.00812       86.22797
H         -2.11134       87.22972       84.45700
H          0.50718       88.10229       83.17750
H         -0.24144       89.95228       84.48186
H          1.13846       89.13747       85.28674
N         -0.09270       85.85600       85.63429
C          0.35877       84.56415       86.12595
C          0.54985       84.53267       87.62606
O          0.88367       83.46984       88.12957
H         -0.96133       86.23143       86.03261
H          1.30556       84.24911       85.63674
H         -0.41233       83.81027       85.87175
N          0.37939       85.64116       88.40644
C          0.62523       85.65718       89.84225
C         -0.59034       86.17933       90.60632
O         -1.34221       86.98649       90.08133
C          1.87800       86.52971       90.07034
C          2.35780       86.57789       91.50018
N          3.55954       86.05504       91.84022
O          1.67094       87.11342       92.35625
H          0.13214       86.53703       87.96877
H          0.85990       84.63329       90.20892
H          1.69668       87.56645       89.71194
H          2.68790       86.09861       89.44005
H          4.16111       85.60258       91.13622
H          3.89064       86.09843       92.81507
N         -0.78510       85.80213       91.90158
C         -1.80816       86.34997       92.78175
C         -3.22472       86.00096       92.37847
O         -3.52508       84.82706       92.21650
H         -0.12134       85.13222       92.31954
H         -1.67334       87.45035       92.86810
H         -1.65027       85.92001       93.79442
N         -4.17552       86.97967       92.28730
C         -5.58944       86.71321       92.00673
C         -5.80665       86.15150       90.61378
O         -4.85595       86.03189       89.85443
C         -6.41858       88.02023       92.14249
C         -6.58738       88.48131       93.56915
C         -7.28418       87.67153       94.48399
C         -6.10961       89.73323       93.98934
C         -7.50195       88.10573       95.79310
C         -6.32798       90.16595       95.30301
C         -7.02697       89.35725       96.20697
O         -7.24336       89.79433       97.46413
H         -3.88775       87.95189       92.47985
H         -5.96862       85.95804       92.72888
H         -7.45250       87.87645       91.76735
H         -5.95544       88.80764       91.50660
H         -7.67615       86.70916       94.17934
H         -5.58000       90.37925       93.30063
H         -8.04894       87.47233       96.48050
H         -5.96295       91.13584       95.61636
H         -7.73597       89.27065       98.11266
N         -7.06951       85.79124       90.22206
C         -7.45060       85.32036       88.89184
C         -7.24986       86.43327       87.87203
O         -6.15900       86.96799       87.77488
C         -6.72519       84.00003       88.49826
C         -7.15331       83.48180       87.09550
C         -6.94593       82.91589       89.56915
C         -8.63215       83.10665       86.94194
H         -7.83276       85.86279       90.91298
H         -8.53568       85.08590       88.92608
H         -5.63334       84.18851       88.43981
H         -6.54793       82.58356       86.84688
H         -6.92226       84.25617       86.33846
H         -6.42035       81.98020       89.28376
H         -6.54120       83.24512       90.54901
H         -8.02580       82.69665       89.70357
H         -9.29721       83.97219       87.12182
H         -8.81110       82.76060       85.90209
H         -8.91255       82.28373       87.62906
N         -8.26763       86.80394       87.04150
C         -8.12228       87.86000       86.04371
C         -9.26918       88.86372       86.05863
O         -9.18804       89.82025       85.29530
C         -7.95523       87.22819       84.65572
O         -9.08467       86.47848       84.29693
H         -9.14330       86.26590       87.06442
H         -7.19879       88.44006       86.24277
H         -7.04248       86.59023       84.64801
H         -7.78486       88.01445       83.88915
H         -8.92335       85.55006       84.61090
N        -10.36374       88.74180       86.86940
C        -11.44309       89.72899       86.87192
C        -10.93210       91.07293       87.36901
O         -9.89094       91.09128       88.01178
C        -12.58572       89.25226       87.77170
H        -10.45030       87.92903       87.49594
H        -11.81364       89.82465       85.82760
H        -12.99893       88.29614       87.38366
H        -12.22336       89.09185       88.80924
H        -13.39155       90.00243       87.81099
N        -11.53162       92.26694       87.08401
C        -12.70386       92.48081       86.23640
C        -13.55006       93.61848       86.80304
O        -12.96500       94.62678       87.17660
C        -12.21476       92.90126       84.84841
H        -11.02503       93.11029       87.39877
H        -13.29032       91.55698       86.08248
H        -13.08152       93.07972       84.17572
H        -11.60365       93.82772       84.90293
H        -11.59380       92.09225       84.40744
N        -14.91512       93.63209       86.83106
C        -15.79875       92.59346       86.31652
C        -15.76958       91.37250       87.20682
O        -15.53658       90.28260       86.70378
C        -17.23455       93.15680       86.19382
C        -18.19710       92.17788       85.50582
C        -19.53296       92.82432       85.27099
O        -19.95898       92.95542       84.13418
O        -20.26653       93.26535       86.31060
H        -15.35583       94.50011       87.17816
H        -15.48421       92.33332       85.28061
H        -17.18043       94.07356       85.56408
H        -17.63166       93.44679       87.19199
H        -18.33598       91.26995       86.12999
H        -17.76702       91.87199       84.52631
N        -16.00040       91.48833       88.54562
C        -15.96758       90.36898       89.46534
H        -16.94543       90.28843       89.98379
H        -15.75814       89.40561       88.95504
H        -15.17346       90.54161       90.22244
H        -16.18962       92.42050       88.94396
Ca        -3.40999       87.86314       88.19089
O         -2.41215       89.97467       90.22014
H         -1.52139       89.70661       90.55904
H         -2.21994       90.66404       89.53577
O         -4.85837       89.11036       85.48451
H         -4.12564       89.31980       84.85484
H         -5.28891       89.98406       85.66112
O         -5.31265       90.07028       88.78243
H         -6.29532       90.05490       88.66414
H         -5.03948       90.97973       88.50200

Ca 1.0



