%chk=apoCaM-CA-Ng.loop4.water3.frame317.chk
%nprocshared=20
%mem=10GB
%nosave
#b3lyp/svp scf=(tight,noincore,xqc) Test 
#IOP(5/87=12) Density=Current Pop=(MK,readradii) iop(6/33=2) iop(6/42=6)

apoCaM-CA-Ng.loop4.water3.frame317 

   -3  1 
C         60.89898       80.71681       34.16725
C         62.23158       80.03671       33.86060
O         63.19107       81.04717       33.75899
H         60.09531       79.96828       34.31091
H         61.00443       81.31668       35.09786
H         60.62580       81.40915       33.34063
N         62.20224       79.27792       32.59534
C         62.52716       77.83519       32.67974
C         63.36013       77.38662       33.89948
O         64.52348       77.72925       34.01047
C         63.11150       77.33491       31.32224
C         64.05983       78.23254       30.53399
O         65.20897       78.71885       31.03699
O         63.77847       78.51056       29.37804
H         61.29717       79.39426       32.07834
H         61.56708       77.28632       32.79588
H         62.24770       77.16695       30.64200
H         63.58748       76.34550       31.47296
N         62.76938       76.59402       34.85640
C         63.37633       76.01181       36.06273
C         64.21374       74.77486       35.73934
O         63.87909       73.70613       36.23347
C         64.11302       77.03967       36.97507
C         64.59051       76.40754       38.32077
C         63.23774       78.27343       37.25665
C         63.48806       75.88170       39.24860
H         61.76571       76.38691       34.74334
H         62.52238       75.63281       36.66591
H         65.02207       77.39704       36.44636
H         65.16751       77.17197       38.88102
H         65.27162       75.55730       38.12575
H         62.28926       77.99124       37.75738
H         63.78761       78.99292       37.90062
H         62.98181       78.79606       36.31467
H         62.79068       76.68803       39.55012
H         62.92079       75.05483       38.77638
H         63.95464       75.47789       40.17234
N         65.28922       74.82048       34.90627
C         66.07366       73.64260       34.55694
C         66.89442       73.11367       35.72662
O         66.81641       71.91434       35.95458
C         66.96380       73.89950       33.32224
C         66.15298       74.15779       32.07234
O         64.80446       74.14693       32.09751
O         66.72560       74.34613       31.01172
H         65.54304       75.70792       34.46229
H         65.38503       72.82590       34.23346
H         67.57249       72.98876       33.12590
H         67.65098       74.74974       33.49908
N         67.71274       73.86528       36.52497
C         67.84487       75.31957       36.49728
C         68.73709       75.80996       37.64123
O         68.69970       75.18073       38.68968
H         68.24121       73.34410       37.24215
H         66.85718       75.77321       36.66153
H         68.16877       75.65041       35.50963
N         69.50952       76.94207       37.61710
C         69.62603       77.92309       36.54878
C         68.26780       78.55911       36.28726
O         67.67914       78.28813       35.25033
C         70.37755       77.36782       35.31005
C         70.72711       78.46181       34.33546
O         70.36224       78.39205       33.17405
O         71.47535       79.50965       34.73221
H         70.03914       77.16006       38.47637
H         70.30865       78.72244       36.90187
H         69.82768       76.58201       34.77115
H         71.33467       76.92271       35.65570
N         67.68781       79.44362       37.15976
C         68.33576       80.01767       38.33225
C         68.16860       79.20650       39.59128
O         67.44895       78.21757       39.60020
H         66.79025       79.85965       36.88796
H         67.87492       81.00732       38.54554
H         69.40086       80.23109       38.12173
N         68.83288       79.59463       40.71937
C         68.71556       78.89310       41.99427
C         67.38802       79.17544       42.69113
O         67.07598       78.48533       43.64892
C         69.89518       79.25182       42.93142
C         69.85500       80.70046       43.46287
C         71.10865       81.04799       44.22373
N         71.47212       80.35855       45.32991
O         71.80676       81.97236       43.83501
H         69.48687       80.38777       40.63783
H         68.80210       77.80440       41.77628
H         70.83878       79.08503       42.36639
H         69.89318       78.55754       43.79956
H         68.98024       80.82840       44.13582
H         69.74890       81.41455       42.61973
H         70.90060       79.57757       45.68152
H         72.33405       80.60824       45.83752
N         66.59930       80.22415       42.30595
C         65.34274       80.58287       42.96393
C         65.41551       81.96292       43.61314
O         64.40290       82.37540       44.17353
C         64.16666       80.52525       41.94618
C         64.00662       79.11543       41.36151
C         64.31141       81.55102       40.80973
H         66.90848       80.82173       41.53001
H         65.11217       79.86352       43.77971
H         63.22606       80.76408       42.49199
H         63.84238       78.37896       42.17625
H         63.12873       79.08079       40.68134
H         64.90855       78.81991       40.78591
H         64.38205       82.58411       41.21035
H         65.21131       81.34696       40.19581
H         63.41965       81.50554       40.15030
N         66.54180       82.73792       43.59603
C         66.60038       84.07592       44.17723
C         66.96393       85.15262       43.15575
O         66.85630       86.31697       43.49857
C         67.63826       84.11030       45.31830
C         67.33974       83.10821       46.40441
N         66.20385       83.19358       47.13506
O         68.14173       82.21592       46.63577
H         67.40403       82.36491       43.17248
H         65.60457       84.35646       44.58728
H         67.67362       85.12278       45.77611
H         68.64247       83.89301       44.88839
H         65.52091       83.94553       46.96508
H         66.01087       82.50870       47.88100
N         67.47053       84.84743       41.91827
C         67.92626       85.86868       40.97559
C         67.41900       85.59615       39.56906
O         67.10164       84.46508       39.24492
C         69.46630       85.81826       40.91304
C         70.12231       86.23605       42.20557
C         70.15059       87.59058       42.57793
C         70.74137       85.28444       43.03175
C         70.80382       87.98742       43.74948
C         71.37879       85.68062       44.21157
C         71.42130       87.03214       44.57028
O         72.06235       87.40039       45.69815
H         67.63563       83.86932       41.65950
H         67.60052       86.88434       41.28787
H         69.86495       86.47339       40.10671
H         69.75823       84.77544       40.65455
H         69.68951       88.34156       41.94819
H         70.72579       84.23597       42.76497
H         70.83598       89.03712       44.01417
H         71.84910       84.93688       44.84242
H         72.13504       88.32633       45.97084
N         67.43380       86.61647       38.65750
C         67.26250       86.51122       37.20680
C         65.97777       85.86903       36.68698
O         65.86041       85.79040       35.47131
C         68.52448       85.91033       36.52948
C         68.78842       84.41696       36.77207
C         69.96154       83.94805       35.95835
O         69.93346       84.01744       34.73956
O         71.04801       83.43895       36.56953
H         67.66876       87.55676       39.00859
H         67.24216       87.55729       36.82239
H         69.41720       86.49306       36.84950
H         68.41198       86.06392       35.43282
H         67.89844       83.81914       36.48160
H         69.02230       84.24014       37.83884
N         64.96792       85.41557       37.48804
C         63.77142       84.76923       36.94673
C         62.51595       85.59128       37.19324
O         61.46113       85.17884       36.72834
C         63.59940       83.36685       37.57064
C         64.79710       82.41705       37.39350
C         65.05507       82.01263       35.97469
O         65.38493       82.83256       35.13420
O         64.96181       80.71474       35.63592
H         65.02780       85.52996       38.50811
H         63.84517       84.66017       35.84458
H         62.69410       82.87358       37.15097
H         63.43822       83.50118       38.66223
H         64.56983       81.48991       37.95842
H         65.71610       82.86065       37.82314
N         62.53027       86.75852       37.89819
C         61.32504       87.52837       38.11502
H         60.57282       86.91255       38.65287
H         61.55352       88.42623       38.72704
H         60.90645       87.85734       37.14008
H         63.40440       87.12240       38.30147
Ca        64.95325       80.01043       32.81507
O         67.76489       78.47200       32.13245
H         68.22338       79.21907       31.67135
H         67.94594       77.68040       31.56585
O         65.45260       82.59337       31.77104
H         65.70879       83.53970       31.64129
H         64.51174       82.54178       31.46547
O         68.00487       81.19470       34.22442
H         68.10549       82.12442       33.90076
H         68.92447       80.82891       34.21619

Ca 1.0



