%chk=apoCaM-CA-Ng.loop3.water2.frame605.chk
%nprocshared=20
%mem=10GB
%nosave
#b3lyp/svp scf=(tight,noincore,xqc) Test 
#IOP(5/87=12) Density=Current Pop=(MK,readradii) iop(6/33=2) iop(6/42=6)

apoCaM-CA-Ng.loop3.water2.frame605 

   0  1 
C         65.34317       47.19486      -17.16368
C         65.29331       48.68852      -17.08668
O         64.97739       49.32714      -18.08040
H         66.36353       46.84261      -16.90365
H         64.61199       46.76605      -16.44782
H         65.09417       46.84633      -18.18857
N         65.62745       49.31676      -15.92629
C         65.62012       50.76137      -15.77095
C         67.05641       51.23283      -15.67489
O         67.78104       50.81271      -14.78329
C         64.77681       51.14577      -14.54003
C         64.59128       52.62754      -14.33573
O         63.85834       53.05678      -13.29186
O         65.09137       53.44447      -15.09243
H         65.93777       48.74380      -15.12564
H         65.13951       51.23800      -16.65408
H         65.23397       50.70955      -13.62743
H         63.76899       50.70734      -14.66383
N         67.53284       52.09895      -16.60877
C         68.90903       52.58119      -16.66675
C         69.36533       53.23241      -15.36976
O         70.50495       53.01271      -14.98337
C         69.10864       53.51289      -17.88842
C         68.21943       54.77304      -17.88804
C         68.39614       55.56960      -19.18684
C         67.42656       56.75832      -19.23606
N         67.59449       57.52138      -20.47203
H         66.87660       52.40623      -17.34032
H         69.57373       51.70458      -16.84064
H         68.87059       52.91860      -18.79923
H         70.17762       53.81351      -17.95296
H         68.46923       55.41631      -17.01838
H         67.15073       54.48757      -17.81631
H         68.18386       54.90925      -20.05711
H         69.44518       55.93038      -19.26006
H         67.60601       57.42483      -18.36394
H         66.38006       56.38091      -19.18196
H         67.40161       56.91305      -21.30113
H         66.92042       58.32039      -20.47424
H         68.56685       57.90134      -20.52990
N         68.52694       54.01117      -14.62972
C         68.91571       54.65426      -13.37402
C         68.14070       54.12503      -12.16356
O         68.43688       54.55381      -11.05671
C         68.80266       56.18407      -13.53311
C         67.45680       56.64068      -14.03488
O         66.34020       56.39119      -13.33369
O         67.37258       57.23469      -15.09787
H         67.56632       54.15483      -14.97156
H         69.98138       54.43709      -13.13927
H         69.56968       56.50263      -14.27311
H         69.03838       56.68438      -12.56946
N         67.19272       53.15185      -12.27591
C         66.53000       52.51632      -11.14435
C         65.57242       53.37870      -10.33689
O         64.96528       52.81500       -9.43705
H         66.98351       52.76419      -13.20161
H         67.29791       52.08519      -10.46538
H         65.92760       51.66830      -11.53571
N         65.36973       54.71315      -10.56265
C         64.41629       55.51361       -9.79057
C         63.40703       56.19878      -10.73830
O         64.05843       57.00191      -11.67476
C         65.12516       56.50863       -8.83502
C         65.67334       57.77370       -9.46042
N         66.67714       57.75595      -10.36546
O         65.19208       58.84719       -9.12743
H         65.90239       55.17571      -11.30118
H         63.83737       54.84059       -9.12114
H         65.92201       55.97834       -8.26945
H         64.36118       56.82717       -8.09071
H         67.12284       56.87866      -10.65521
H         67.01720       58.63883      -10.77544
N         62.35808       56.93537      -10.02056
C         61.52942       57.84718      -10.84131
C         60.81204       57.18187      -12.00692
O         60.14942       56.17760      -11.78889
H         61.73940       56.23454       -9.54996
H         62.14032       58.70692      -11.18977
H         60.74831       58.26482      -10.17024
N         60.84027       57.73791      -13.26355
C         60.13791       57.16390      -14.41942
C         60.86889       55.90646      -14.97370
O         61.21469       55.04328      -13.95233
C         60.02650       58.18321      -15.58316
C         59.15169       59.38711      -15.30963
C         57.79795       59.22175      -14.96367
C         59.65963       60.68900      -15.46667
C         56.97039       60.33422      -14.78139
C         58.82666       61.80065      -15.29213
C         57.47739       61.62567      -14.95212
O         56.65815       62.68614      -14.79843
H         61.32192       58.64130      -13.38149
H         59.11138       56.88049      -14.10098
H         59.56027       57.68015      -16.45711
H         61.04903       58.49736      -15.89053
H         57.37410       58.23281      -14.84969
H         60.69311       60.84679      -15.74815
H         55.92851       60.19120      -14.52242
H         59.22720       62.79684      -15.43365
H         56.96044       63.59588      -14.93218
N         60.06091       55.22079      -15.99935
C         60.53816       53.91467      -16.51580
C         61.89507       54.03067      -17.18839
O         62.87579       54.35218      -16.53533
C         60.51843       52.72606      -15.48330
C         60.93413       51.40361      -16.19094
C         59.12935       52.59584      -14.82860
C         60.92688       50.17112      -15.28406
H         59.06153       55.15077      -15.70268
H         59.80180       53.62452      -17.29751
H         61.26340       52.88213      -14.67981
H         61.97471       51.51424      -16.56584
H         60.27169       51.20492      -17.06063
H         58.35261       52.39877      -15.59743
H         59.11378       51.78288      -14.07670
H         58.86565       53.51308      -14.26560
H         61.54795       50.34177      -14.38159
H         59.89664       49.91013      -14.97093
H         61.33458       49.30289      -15.84377
N         62.01423       53.68003      -18.49896
C         63.27667       53.56646      -19.21480
C         63.28991       54.45800      -20.44779
O         64.06866       54.19464      -21.35521
C         63.45702       52.08536      -19.59913
O         62.41092       51.66518      -20.43726
H         61.16345       53.40659      -19.01436
H         64.14638       53.84076      -18.57694
H         63.46608       51.48951      -18.65670
H         64.42789       51.92830      -20.11676
H         62.25528       50.70365      -20.24690
N         62.48584       55.55938      -20.53540
C         62.43124       56.42126      -21.71296
C         63.81913       56.93885      -22.06431
O         64.42886       57.57157      -21.21204
C         61.48305       57.59857      -21.45958
H         61.88750       55.79959      -19.73027
H         62.00158       55.83106      -22.54440
H         60.46661       57.22088      -21.21940
H         61.84437       58.21397      -20.60712
H         61.41288       58.24194      -22.36042
N         64.43047       56.69246      -23.26257
C         63.81068       55.98261      -24.38703
C         62.71406       56.84744      -25.02896
O         62.63026       58.01330      -24.68061
C         64.89452       55.66447      -25.43042
H         65.40414       57.02055      -23.36922
H         63.41344       55.01779      -24.00980
H         64.50367       55.07383      -26.27764
H         65.33652       56.60203      -25.83105
H         65.70237       55.06433      -24.95972
N         61.84559       56.40262      -25.99649
C         61.72789       55.03153      -26.47665
C         60.32209       54.45522      -26.29101
O         60.14554       53.28441      -26.58359
C         62.14752       54.91645      -27.97057
C         61.14438       55.47087      -29.00749
C         60.96944       56.95817      -28.95972
O         59.76369       57.48490      -28.67107
O         61.90966       57.69702      -29.20401
H         61.21077       57.10938      -26.39629
H         62.40888       54.38098      -25.89593
H         62.24775       53.83214      -28.19548
H         63.14801       55.37381      -28.12588
H         60.16083       54.97516      -28.86521
H         61.49865       55.20461      -30.02671
N         59.26801       55.21750      -25.85898
C         57.91131       54.71137      -25.76278
H         57.25476       55.30325      -26.43681
H         57.82824       53.64432      -26.05585
H         57.54591       54.82293      -24.72135
H         59.39751       56.20490      -25.61242
Ca        63.21446       55.91291      -13.42159
O         64.40582       56.93447      -17.07262
H         64.93035       57.70318      -17.41064
H         63.47667       57.12296      -17.35881
O         64.00919       58.77833      -14.56031
H         63.54044       59.32075      -13.87807
H         64.38844       59.44459      -15.18655

Ca 1.0



