%chk=apoCaM-CA-Ng.loop1.water3.frame1305.chk
%nprocshared=20
%mem=10GB
%nosave
#b3lyp/svp scf=(tight,noincore,xqc) Test 
#IOP(5/87=12) Density=Current Pop=(MK,readradii) iop(6/33=2) iop(6/42=6)

apoCaM-CA-Ng.loop1.water3.frame1305 

   0  1 
C         47.69589       17.80739       64.45713
C         47.60820       18.15034       65.91249
O         47.15543       19.23898       66.24034
H         47.34237       18.65333       63.82902
H         48.75041       17.58426       64.18790
H         47.06719       16.91713       64.25392
N         48.07496       17.27125       66.84667
C         48.07767       17.55898       68.27833
C         49.45037       18.01307       68.72217
O         49.99526       17.51173       69.69651
C         47.50551       16.38487       69.11166
C         48.24359       15.06904       68.99168
O         47.81482       14.01140       69.70536
O         49.22105       14.94112       68.27125
H         48.51017       16.40336       66.50645
H         47.43146       18.43556       68.47359
H         46.44891       16.21724       68.81646
H         47.51495       16.68134       70.18423
N         50.04648       19.03014       68.04644
C         51.28833       19.65242       68.46372
C         51.09653       20.34421       69.79657
O         51.88685       20.05781       70.68532
C         51.83560       20.61084       67.39167
C         52.15196       19.82777       66.10597
C         52.72862       20.73369       65.02477
C         53.07435       19.91662       63.77437
N         53.50940       20.79329       62.69076
H         49.57772       19.39847       67.20793
H         52.06927       18.86616       68.58187
H         52.78363       21.05818       67.76752
H         51.12318       21.43497       67.18039
H         51.22869       19.35800       65.70414
H         52.88107       19.02001       66.33932
H         53.64914       21.23317       65.39961
H         51.97296       21.50798       64.77123
H         52.18347       19.34092       63.43617
H         53.88363       19.19216       64.02140
H         54.31799       21.37962       63.00005
H         53.79896       20.20980       61.87342
H         52.71513       21.41016       62.40220
N         50.07617       21.20722       70.09542
C         48.96722       21.64743       69.23287
C         47.64498       21.03449       69.70282
O         47.65702       20.25170       70.63957
C         48.95862       23.19015       69.06669
C         49.07711       24.03840       70.30082
O         49.12184       23.51032       71.52736
O         49.19505       25.24313       70.17955
H         50.06255       21.51798       71.07388
H         49.08104       21.27130       68.20656
H         48.05094       23.50384       68.51042
H         49.83633       23.45218       68.44043
N         46.48865       21.21918       68.99447
C         45.28372       20.42840       69.23779
C         44.43466       20.84971       70.41676
O         44.61138       21.93363       70.95115
H         46.51323       21.80539       68.14779
H         45.56840       19.36236       69.34555
H         44.61766       20.49042       68.34998
N         43.45447       19.99487       70.84722
C         42.45587       20.28477       71.88045
C         41.09371       19.73685       71.44637
O         41.06422       18.65651       70.87432
C         42.84369       19.65166       73.23928
C         44.15326       20.23407       73.69019
O         45.11762       19.52424       73.93744
O         44.23018       21.58860       73.67496
H         43.42689       19.06025       70.41253
H         42.40394       21.37967       72.05273
H         42.87057       18.54219       73.17687
H         42.07392       19.93780       73.99062
N         39.90203       20.33054       71.75010
C         39.76023       21.55890       72.50369
C         40.21414       22.76537       71.72749
O         40.56890       22.65538       70.56093
H         39.03357       19.84307       71.47807
H         40.31902       21.47079       73.45868
H         38.68769       21.71564       72.75427
N         40.21573       23.97724       72.34388
C         40.61804       25.21586       71.68266
C         42.05946       25.13421       71.15674
O         42.78862       24.21666       71.50423
C         40.34163       26.40917       72.64483
C         40.70384       27.78437       72.07826
O         41.01294       26.20630       73.85848
H         39.89272       24.01033       73.32402
H         39.96054       25.33506       70.79220
H         39.24401       26.39687       72.84340
H         40.66955       26.87754       74.50439
H         41.80050       27.87113       71.93214
H         40.16836       27.96103       71.12267
H         40.40306       28.57435       72.79784
N         42.47452       26.02778       70.20973
C         43.72760       25.99562       69.45508
C         44.95073       26.18758       70.33259
O         45.35261       25.26830       71.02970
C         43.83865       24.71353       68.58025
C         42.61132       24.59207       67.64207
C         45.14306       24.72227       67.75106
C         42.40608       23.16755       67.13075
H         41.81112       26.75936       69.92002
H         43.68594       26.85748       68.75106
H         43.85511       23.84004       69.26397
H         42.70898       25.31194       66.79886
H         41.67550       24.83925       68.18371
H         45.16859       25.60853       67.07951
H         46.03246       24.76875       68.41043
H         45.24473       23.80816       67.13450
H         43.28690       22.78607       66.57969
H         42.19810       22.49722       67.99422
H         41.52385       23.14519       66.45715
N         45.61402       27.37601       70.29415
C         46.87381       27.64941       70.97657
C         46.66960       28.55598       72.18914
O         47.65479       28.94084       72.80358
C         47.90077       28.26659       69.96036
C         47.45686       29.61774       69.37985
O         48.20226       27.40810       68.88246
H         45.18639       28.14323       69.75813
H         47.31808       26.71224       71.35685
H         48.84907       28.43492       70.51609
H         47.58744       26.63170       68.87932
H         48.26380       30.02690       68.73530
H         46.55546       29.51179       68.74264
H         47.25134       30.35091       70.18659
N         45.42352       28.95455       72.57946
C         45.18659       29.93880       73.63167
C         45.52579       29.38007       75.01206
O         44.80458       28.52817       75.50957
C         43.72133       30.43861       73.53119
C         43.37882       31.48182       74.58950
O         43.51752       31.02695       72.26811
H         44.61079       28.60262       72.05730
H         45.83912       30.81422       73.41866
H         43.01586       29.58377       73.67124
H         43.28461       30.30593       71.62691
H         44.06171       32.35262       74.50315
H         42.33369       31.82664       74.43591
H         43.45543       31.04860       75.60792
N         46.65043       29.80428       75.66522
C         47.13202       29.29372       76.95055
C         47.16765       27.77153       76.91127
O         46.54833       27.13490       77.75370
C         46.29410       29.87159       78.12882
C         47.01106       29.72136       79.49149
C         46.21787       30.37414       80.63879
C         47.05102       30.43837       81.93246
N         46.28686       31.03866       83.02793
H         47.26071       30.48148       75.18363
H         48.16805       29.67932       77.07817
H         45.27737       29.42037       78.15156
H         46.17531       30.96413       77.95858
H         47.99414       30.23465       79.41010
H         47.19432       28.65372       79.73854
H         45.28055       29.80174       80.81216
H         45.95209       31.41684       80.35904
H         47.95690       31.05795       81.74322
H         47.38328       29.42049       82.23366
H         45.90982       31.97238       82.74473
H         45.49850       30.40794       83.30024
H         46.91445       31.16950       83.85471
N         47.77236       27.12284       75.86827
C         47.58228       25.69082       75.65842
C         47.88289       25.20064       74.21898
O         46.80900       25.39298       73.34602
C         48.25571       24.78962       76.71420
C         47.83822       23.30758       76.56358
C         46.39367       23.03824       76.92481
O         46.10915       22.21046       77.94514
O         45.47352       23.53594       76.29903
H         48.22126       27.69196       75.13871
H         46.49644       25.53891       75.76587
H         48.00976       25.11510       77.74398
H         49.34996       24.85790       76.61552
H         48.47242       22.70272       77.24145
H         48.04158       22.95255       75.53444
N         49.18708       25.33549       73.52938
C         50.33810       25.93431       74.20169
H         51.19124       25.93074       73.48687
H         50.15259       26.99057       74.46374
H         50.67687       25.33369       75.05989
H         49.04854       25.85501       72.63704
Ca        45.49681       23.50249       73.59336
O         44.21072       26.16021       73.66658
H         43.32580       26.57415       73.77948
H         44.62152       26.23479       74.56158
O         42.55832       23.41730       74.84903
H         42.24156       22.67656       75.42428
H         41.96389       24.17440       75.07032
O         47.37201       21.75615       73.44062
H         48.22087       22.22113       73.25727
H         47.30140       21.05800       72.75499

Ca 1.0



