%chk=apoCaM-CA-Ng.loop3.water3.frame760.chk
%nprocshared=20
%mem=10GB
%nosave
#b3lyp/svp scf=(tight,noincore,xqc) Test 
#IOP(5/87=12) Density=Current Pop=(MK,readradii) iop(6/33=2) iop(6/42=6)

apoCaM-CA-Ng.loop3.water3.frame760 

   0  1 
C         96.41794       16.56417       15.29889
C         97.79487       15.99252       15.45441
O         98.42247       15.66237       14.45862
H         95.68433       15.93311       15.84142
H         96.39765       17.59261       15.71869
H         96.13054       16.61443       14.22690
N         98.34409       15.87169       16.69526
C         99.71261       15.40008       16.90845
C         99.83266       13.92689       16.49604
O         98.79965       13.28236       16.35701
C        100.09164       15.63188       18.40104
C        101.55423       15.87240       18.67623
O        101.93413       17.01190       19.28435
O        102.40280       15.05459       18.38734
H         97.77901       16.18475       17.50050
H        100.35612       16.03695       16.27917
H         99.68491       14.80646       19.02530
H         99.60272       16.56895       18.74789
N        101.03960       13.31581       16.29679
C        101.16797       11.87921       16.02494
C        101.87303       11.14558       17.15699
O        101.73759        9.93312       17.21826
C        101.91640       11.58956       14.71046
C        101.15542       12.01579       13.45057
C        101.97302       11.63504       12.20485
C        101.20816       11.90778       10.90527
N        102.00821       11.51695        9.74308
H        101.89371       13.88484       16.35942
H        100.16037       11.41194       15.96078
H        102.07378       10.49005       14.63309
H        102.91420       12.07195       14.73933
H        100.95992       13.10887       13.45995
H        100.18213       11.47800       13.42858
H        102.21083       10.54853       12.24118
H        102.92789       12.20609       12.20382
H        100.95537       12.98833       10.83507
H        100.26209       11.32128       10.90804
H        102.88709       12.08274        9.70440
H        102.24888       10.49978        9.79450
H        101.45661       11.68679        8.87144
N        102.64705       11.79296       18.07549
C        103.27286       11.12657       19.20823
C        102.78682       11.69530       20.53511
O        103.18893       11.14846       21.55525
C        104.81085       11.16990       19.06658
C        105.38686       12.55656       18.94665
O        105.25155       13.44445       19.94567
O        106.00936       12.87401       17.94601
H        102.82377       12.79217       17.97335
H        102.99033       10.05188       19.22640
H        105.08196       10.59669       18.15262
H        105.28115       10.65742       19.93361
N        101.92128       12.75468       20.62515
C        101.40888       13.23827       21.89544
C        101.92443       14.61157       22.25262
O        101.13625       15.44845       22.66964
H        101.58538       13.23105       19.78097
H        101.73101       12.57368       22.72348
H        100.29658       13.21296       21.89079
N        103.26595       14.86243       22.23230
C        103.88744       15.99829       22.90788
C        104.66659       16.92875       21.98085
O        104.78746       16.67748       20.79059
C        104.86977       15.42406       23.96161
C        104.19897       14.53802       24.98583
N        104.25093       14.84839       26.30105
O        103.62446       13.51902       24.63197
H        103.88978       14.14609       21.83914
H        103.11694       16.61701       23.41871
H        105.38878       16.24742       24.49083
H        105.65010       14.82408       23.44067
H        104.74117       15.69384       26.62651
H        103.80313       14.23648       26.99870
N        105.24915       18.03960       22.52672
C        106.12982       18.97971       21.84992
C        105.46527       19.74780       20.73937
O        104.33819       20.19295       20.90702
H        105.09258       18.22384       23.52913
H        107.04530       18.46268       21.49017
H        106.45379       19.73294       22.60096
N        106.15675       20.02002       19.59352
C        105.58235       20.76728       18.47820
C        104.45377       19.97790       17.83508
O        104.16001       18.87395       18.26726
C        106.67061       21.09894       17.41860
C        107.67422       22.13497       17.87795
C        109.04963       21.84852       17.89861
C        107.24211       23.42658       18.23618
C        109.97262       22.83578       18.26681
C        108.16473       24.40795       18.60865
C        109.53180       24.11977       18.62118
O        110.40915       25.08455       18.96553
H        107.13574       19.70128       19.52342
H        105.15207       21.72084       18.85241
H        106.20799       21.54239       16.51464
H        107.16968       20.15802       17.09742
H        109.41106       20.86875       17.61414
H        106.19091       23.68355       18.21489
H        111.03052       22.60543       18.26733
H        107.81624       25.39816       18.87625
H        111.36531       24.93528       18.97099
N        103.77157       20.50866       16.78091
C        102.67606       19.85750       16.07694
C        103.18394       18.51894       15.46197
O        102.81773       17.40386       16.22782
C        101.42042       19.71468       17.00103
C        100.17555       19.14318       16.27334
C        101.07904       21.04133       17.70562
C         99.56826       20.04742       15.19872
H        104.03727       21.44540       16.44300
H        102.40912       20.54397       15.24402
H        101.67125       19.00019       17.80813
H         99.38600       18.93787       17.02949
H        100.43506       18.18084       15.79957
H        100.20476       20.90393       18.37708
H        101.92698       21.38077       18.33719
H        100.85728       21.84318       16.97254
H        100.29525       20.27001       14.39413
H         98.69673       19.53012       14.74493
H         99.20551       20.99832       15.63795
N        102.83034       18.36088       14.04306
C        103.21751       17.05786       13.46098
C        103.77199       17.20794       12.05386
O        104.10955       16.19175       11.45996
C        102.03110       16.07038       13.46150
O        100.98476       16.52693       12.64339
H        101.83792       18.61070       13.84229
H        104.04033       16.60689       14.05834
H        101.67736       15.88312       14.49473
H        102.36212       15.08193       13.07939
H        100.34199       17.00641       13.22784
N        103.93385       18.42760       11.45805
C        104.49708       18.57368       10.11614
C        105.90954       18.01020       10.04432
O        106.52976       17.86453       11.08936
C        104.53289       20.05316        9.73322
H        103.65567       19.27879       11.96817
H        103.83926       18.01163        9.41860
H        105.13538       20.62698       10.46964
H        105.00801       20.18472        8.74981
H        103.50252       20.46756        9.70930
N        106.49506       17.58812        8.88273
C        105.89099       17.57619        7.54930
C        106.92796       17.97461        6.50186
O        108.03700       17.46318        6.58213
C        105.43971       16.14575        7.24470
H        107.41632       17.13100        8.97905
H        104.98052       18.19877        7.48992
H        104.68042       15.82444        7.98944
H        104.97741       16.09884        6.23472
H        106.29576       15.43823        7.28221
N        106.67668       18.77950        5.42636
C        105.39779       19.39108        5.08461
C        105.06985       20.51311        6.04065
O        103.98468       20.50882        6.60412
C        105.44597       19.91823        3.63052
C        104.08714       20.46054        3.15702
C        104.14124       20.86899        1.71280
O        103.88428       22.14284        1.36031
O        104.40092       20.04521        0.84957
H        107.45400       18.90269        4.75655
H        104.60465       18.60968        5.10227
H        105.72672       19.06584        2.97207
H        106.22334       20.70716        3.52452
H        103.79717       21.33752        3.77467
H        103.30847       19.67537        3.27029
N        105.96830       21.51549        6.25918
C        105.73724       22.61783        7.17013
H        104.74035       22.56579        7.65534
H        106.51352       22.60298        7.96438
H        105.81080       23.57591        6.61511
H        106.87557       21.49205        5.76956
Ca       104.74933       16.46689       17.00827
O        107.23735       16.37056       18.85528
H        107.75359       17.21526       18.86902
H        107.92367       15.65933       18.79666
O        104.37532       14.24268       15.25039
H        104.53615       13.92516       14.32714
H        104.52899       13.45026       15.82240
O        107.08228       17.02341       15.27009
H        106.47757       16.53412       14.65730
H        106.80643       17.97077       15.18666

Ca 1.0



