%chk=apoCaM-CA-Ng.loop4.water5.frame560.chk
%nprocshared=20
%mem=10GB
%nosave
#b3lyp/svp scf=(tight,noincore,xqc) Test 
#IOP(5/87=12) Density=Current Pop=(MK,readradii) iop(6/33=2) iop(6/42=6)

apoCaM-CA-Ng.loop4.water5.frame560 

   -3  1 
C         46.75762       20.65548       69.22648
C         45.81345       19.70907       68.55143
O         45.71378       18.57072       68.98113
H         47.52923       20.98795       68.50104
H         46.19931       21.53615       69.60508
H         47.26512       20.15817       70.08162
N         45.07921       20.12060       67.47573
C         44.16484       19.25993       66.72402
C         42.99985       18.74495       67.57052
O         42.28054       17.87667       67.09463
C         44.92907       18.08879       66.06917
C         46.11633       18.54745       65.28061
O         47.34860       18.15106       65.65057
O         45.97656       19.27530       64.31196
H         45.18999       21.09378       67.15216
H         43.72731       19.85030       65.88800
H         44.25083       17.51269       65.40261
H         45.29439       17.40399       66.84026
N         42.70678       19.27536       68.79738
C         41.58594       18.82386       69.62555
C         40.45977       19.85048       69.57584
O         40.71591       20.97327       69.16224
C         42.04269       18.55860       71.10160
C         42.68555       19.81504       71.75491
C         42.96882       17.33772       71.16665
C         42.90866       19.67968       73.26169
H         43.24627       20.08713       69.12265
H         41.17941       17.89114       69.19538
H         41.15554       18.30567       71.70482
H         42.00737       20.68385       71.61691
H         43.66020       20.05180       71.27886
H         43.90703       17.51817       70.60599
H         43.21855       17.07604       72.21481
H         42.44756       16.46088       70.73213
H         43.32876       20.63017       73.65462
H         41.94310       19.48502       73.77521
H         43.62567       18.86942       73.49911
N         39.17128       19.58108       69.95411
C         38.63400       18.27288       70.33833
C         38.68035       17.32033       69.16538
O         39.20797       16.22647       69.31729
C         37.17799       18.38053       70.83489
C         37.07961       19.17176       72.11388
O         36.64749       18.57357       73.24059
O         37.38592       20.35273       72.14296
H         38.50683       20.36909       69.90782
H         39.19166       17.83569       71.18640
H         36.80784       17.35141       71.04742
H         36.52227       18.82853       70.05820
N         38.18196       17.68241       67.94791
C         38.23587       16.79111       66.80753
C         37.19198       15.71547       66.93735
O         36.01873       16.01239       66.76116
H         37.81104       18.63462       67.81218
H         39.26398       16.37512       66.71793
H         38.02957       17.34634       65.86663
N         37.54424       14.44391       67.26547
C         36.59328       13.34118       67.34038
C         36.31488       12.89852       68.77111
O         35.55535       11.95596       68.93589
C         37.05953       12.19989       66.40467
C         38.46858       11.71979       66.64480
O         38.81006       11.12995       67.80119
O         39.31083       11.84644       65.76999
H         38.53346       14.24964       67.48428
H         35.59533       13.65452       66.96132
H         37.00814       12.58838       65.36373
H         36.36069       11.33859       66.47291
N         36.79477       13.57085       69.86040
C         36.42119       13.21436       71.22432
C         37.00048       11.89782       71.70101
O         36.70182       11.51281       72.82185
H         37.38024       14.40689       69.73345
H         35.31195       13.19087       71.30081
H         36.79101       13.99876       71.92038
N         37.87610       11.18318       70.93767
C         38.55895        9.96656       71.35924
C         39.41808       10.25487       72.57511
O         39.44399        9.46868       73.51229
C         37.56440        8.79987       71.55238
C         36.86981        8.40278       70.22970
C         35.38514        8.21305       70.41050
N         34.51060        8.93125       69.66562
O         34.96662        7.41366       71.23405
H         38.14307       11.54878       70.02102
H         39.26968        9.68197       70.55027
H         36.82432        9.10089       72.32201
H         38.07973        7.89605       71.94824
H         37.33225        7.46804       69.84254
H         37.03064        9.17787       69.45024
H         34.84472        9.59175       68.95032
H         33.49420        8.82194       69.79052
N         40.16829       11.39378       72.60023
C         41.12296       11.71699       73.65406
C         42.51890       11.94178       73.09944
O         43.43975       12.03135       73.90064
C         40.70618       12.99935       74.43592
C         40.65290       14.25850       73.54242
C         39.36681       12.81029       75.15070
H         40.04177       12.06287       71.82878
H         41.18894       10.86905       74.37096
H         41.47195       13.18212       75.22358
H         39.87655       14.16569       72.75481
H         40.41743       15.15298       74.15682
H         41.63292       14.44662       73.05428
H         38.54862       12.64982       74.41981
H         39.42142       11.93937       75.83706
H         39.13213       13.71329       75.75468
N         42.74650       12.17549       71.77162
C         44.01027       12.73078       71.32138
C         44.99494       11.61345       71.02628
O         44.59418       10.46795       70.89613
C         43.74997       13.62056       70.07798
C         44.80781       14.64891       69.76753
N         44.68791       15.41438       68.66778
O         45.75040       14.84244       70.51652
H         41.96998       12.17635       71.10044
H         44.38645       13.39461       72.13153
H         42.82458       14.21212       70.24422
H         43.56703       12.96613       69.19804
H         43.89463       15.30586       68.01886
H         45.41496       16.11091       68.47716
N         46.31788       11.89697       70.90764
C         47.33146       10.92237       70.51647
C         48.73587       11.50413       70.65684
O         48.88967       12.68832       70.90871
C         47.06646       10.42530       69.06433
C         46.61261       11.51344       68.09425
C         47.39399       12.65046       67.81917
C         45.36146       11.38808       67.45577
C         46.92779       13.63876       66.93929
C         44.90387       12.36979       66.57232
C         45.68134       13.49919       66.31263
O         45.21844       14.44238       65.46630
H         46.61179       12.85008       71.11536
H         47.30268       10.06456       71.22215
H         46.25804        9.66569       69.11812
H         47.95665        9.89399       68.66630
H         48.35583       12.78351       68.28820
H         44.73099       10.52742       67.63986
H         47.53149       14.51647       66.74584
H         43.93911       12.25399       66.09306
H         45.71892       15.24509       65.26263
N         49.82431       10.68572       70.52260
C         51.18903       11.19160       70.58571
C         51.85338       10.92208       69.24777
O         52.10664        9.76528       68.94705
C         52.00246       10.54908       71.72586
C         51.44063       10.88568       73.11381
C         52.32960       10.33439       74.19339
O         51.84864        9.43900       75.07624
O         53.48992       10.70530       74.28319
H         49.68022        9.68282       70.33982
H         51.17791       12.27270       70.79543
H         53.04031       10.94715       71.66463
H         52.04145        9.44453       71.59854
H         50.41888       10.46080       73.21640
H         51.38103       11.98843       73.24125
N         52.12131       11.90897       68.34227
C         51.74824       13.30965       68.52270
C         52.58591       13.98903       69.59005
O         53.57596       13.43015       70.04532
C         51.87278       14.07466       67.19113
C         50.85912       13.56036       66.15646
C         51.04127       14.25746       64.84380
O         50.94924       15.59780       64.77434
O         51.27573       13.61371       63.83352
H         52.53743       11.61740       67.44332
H         50.68151       13.35310       68.83506
H         52.91134       13.96721       66.80652
H         51.66984       15.15600       67.35350
H         49.83315       13.75764       66.52741
H         50.96586       12.46539       66.00332
N         52.20216       15.20405       70.06750
C         52.93456       15.89854       71.10214
H         53.95551       16.14302       70.74207
H         52.41104       16.84294       71.36404
H         52.99930       15.26651       72.01368
H         51.34192       15.64224       69.70299
Ca        48.93033       20.55542       64.76246
O         46.90804       22.47353       63.71809
H         46.29050       22.89482       64.36689
H         46.38835       21.72563       63.33035
O         48.48205       19.80067       61.79695
H         48.83573       19.24857       61.05510
H         47.64781       20.19570       61.43917
O         48.86549       17.29621       63.48454
H         49.68639       17.01672       63.00853
H         48.33669       16.46497       63.58645
O         51.53000       19.80196       63.41239
H         51.83157       18.86424       63.51217
H         52.35950       20.31551       63.24395
O         50.44956       19.09137       66.84215
H         51.14548       19.31713       67.50890
H         49.97136       18.31617       67.23014

Ca 1.0



