%chk=apoCaM-CA-Ng.loop2.water5.frame1043.chk
%nprocshared=20
%mem=10GB
%nosave
#b3lyp/svp scf=(tight,noincore,xqc) Test 
#IOP(5/87=12) Density=Current Pop=(MK,readradii) iop(6/33=2) iop(6/42=6)

apoCaM-CA-Ng.loop2.water5.frame1043 

   -2  1 
C         16.57715       68.00762       56.29051
C         16.79741       69.48768       56.09505
O         16.63874       69.92527       54.96481
H         15.54622       67.75982       55.95870
H         17.29506       67.44074       55.66260
H         16.66248       67.64690       57.32815
N         17.12108       70.36484       57.09248
C         17.39326       70.03741       58.48795
C         18.67560       70.74606       58.92887
O         19.65966       70.62004       58.21420
C         16.13062       70.31805       59.33993
C         15.62486       71.73681       59.24508
O         15.55160       72.50705       60.34680
O         15.23127       72.18048       58.17859
H         17.17048       71.36061       56.83686
H         17.61946       68.96314       58.60004
H         16.33285       70.05158       60.39864
H         15.31295       69.65060       58.99130
N         18.75753       71.49079       60.07863
C         19.94986       72.21227       60.52795
C         20.30269       73.39781       59.63754
O         21.29692       74.05555       59.91410
C         21.14541       71.26636       60.71542
H         17.94286       71.55693       60.70019
H         19.73002       72.64004       61.53255
H         21.99276       71.81724       61.17775
H         20.86593       70.43384       61.39472
H         21.50346       70.84850       59.75434
N         19.49755       73.78400       58.60646
C         19.72681       74.98336       57.81732
C         18.99838       76.16137       58.42163
O         17.81039       76.08670       58.66725
C         19.38638       74.78882       56.31639
C         18.28649       73.81298       55.93324
O         18.59165       72.88427       55.20122
O         16.99367       73.89009       56.32414
H         18.60306       73.29930       58.46364
H         20.80460       75.26281       57.83217
H         20.30877       74.38451       55.84141
H         19.22026       75.78088       55.84255
N         19.67285       77.32153       58.64660
C         19.04929       78.54204       59.11764
C         19.11145       79.62431       58.05934
O         18.77533       80.75512       58.38148
H         20.67770       77.37524       58.41767
H         19.60412       78.87739       60.01993
H         17.98567       78.39570       59.40556
N         19.49607       79.36066       56.76952
C         19.61180       80.40632       55.75434
C         19.73103       79.82367       54.34065
O         20.03647       78.65060       54.17345
C         20.83613       81.28714       56.10588
C         21.06749       82.44630       55.17515
N         22.22675       82.54929       54.48285
O         20.21338       83.31250       55.06273
H         19.68766       78.38720       56.49815
H         18.66576       80.99302       55.77119
H         21.73462       80.63100       56.11889
H         20.72146       81.70624       57.12673
H         22.96367       81.83404       54.57401
H         22.39450       83.35058       53.85748
N         19.40501       80.59758       53.26564
C         19.40459       80.11770       51.89007
C         20.80098       79.95650       51.32335
O         21.76241       80.19301       52.04135
H         19.07007       81.55854       53.43067
H         18.90441       80.88867       51.26652
H         18.81690       79.17819       51.81766
N         21.02523       79.63594       50.01236
C         19.99282       79.32551       49.02479
C         20.40793       78.09630       48.23224
O         21.44529       78.14763       47.58356
C         19.80607       80.53078       48.06406
C         18.79438       80.23605       46.94751
O         19.34157       81.64362       48.78396
H         22.00298       79.65997       49.68020
H         19.01341       79.14085       49.51301
H         20.77308       80.77805       47.56422
H         20.13657       82.11175       49.14856
H         18.67308       81.13119       46.30158
H         19.14524       79.40672       46.30134
H         17.80619       79.96303       47.37415
N         19.62587       76.97626       48.19471
C         19.91993       75.83893       47.32489
C         18.72614       75.64479       46.39279
O         17.71154       75.13915       46.85349
C         20.21408       74.55210       48.15069
C         21.37752       74.80432       49.14358
C         20.53277       73.37344       47.20448
C         21.64557       73.62869       50.08549
H         18.76882       76.94335       48.76806
H         20.83358       76.04010       46.72899
H         19.30651       74.29838       48.74298
H         21.12054       75.67036       49.79026
H         22.30629       75.05315       48.58689
H         19.69117       73.18480       46.50641
H         21.44223       73.58970       46.60467
H         20.68547       72.43111       47.76605
H         22.44403       73.90854       50.80419
H         20.72677       73.38035       50.65874
H         21.99208       72.73238       49.53377
N         18.71080       76.05803       45.09081
C         19.75531       76.87811       44.48280
C         20.86326       75.98705       43.91781
O         20.68890       74.77772       43.86658
C         19.09429       77.77856       43.40208
C         19.83695       79.02474       42.98609
O         20.94796       79.43931       43.62099
O         19.35619       79.73498       42.11786
H         17.82869       75.92367       44.56971
H         20.14924       77.55531       45.26559
H         18.13321       78.16520       43.80985
H         18.85383       77.15368       42.51438
N         22.04637       76.52122       43.50290
C         23.14400       75.75116       42.91922
C         24.35587       76.66495       42.78337
O         24.21674       77.69350       42.13541
C         22.73904       75.15832       41.54305
C         23.83425       74.29889       40.93845
C         24.98791       74.87838       40.37405
C         23.70879       72.89779       40.93344
C         25.99444       74.07409       39.83228
C         24.72153       72.09706       40.39538
C         25.86371       72.68446       39.84673
H         22.19220       77.52372       43.64679
H         23.37329       74.89695       43.58191
H         22.44157       75.94965       40.82055
H         21.84444       74.52212       41.70174
H         25.11235       75.95160       40.34186
H         22.83442       72.42193       41.35901
H         26.87689       74.52948       39.40099
H         24.62160       71.01953       40.40578
H         26.64626       72.06322       39.43038
N         25.58517       76.37235       43.32187
C         25.96654       75.12472       43.97832
C         25.29022       74.84736       45.31070
O         24.46468       75.63608       45.75065
C         27.48342       75.26450       44.16190
C         27.86411       76.13716       42.98337
C         26.75718       77.17748       43.04336
H         25.75837       74.29593       43.26468
H         27.69127       75.87048       45.07336
H         28.02956       74.30026       44.23823
H         28.89058       76.55785       43.02778
H         27.74973       75.54354       42.04720
H         26.92771       77.86161       43.90534
H         26.70026       77.76237       42.10031
N         25.59071       73.70213       45.99089
C         24.93993       73.29925       47.23414
C         25.26485       71.84066       47.57340
O         25.79984       71.57160       48.63820
C         25.22959       74.28887       48.40748
C         26.66841       74.42044       48.96376
C         27.68512       74.94498       47.99375
O         28.05987       74.25818       47.05958
O         28.25541       76.14720       48.20274
H         26.28181       73.06215       45.56937
H         23.84160       73.32598       47.06736
H         24.59520       73.96714       49.26211
H         24.88112       75.30382       48.12922
H         27.04324       73.46793       49.38601
H         26.60796       75.13859       49.81064
N         24.94044       70.80740       46.74142
C         24.25625       70.95918       45.47344
H         23.27349       71.45238       45.62333
H         24.86684       71.53979       44.75569
H         24.08178       69.95907       45.02267
H         25.17200       69.84694       47.04062
Ca        15.65238       75.07959       57.70188
O         12.95502       74.13359       59.02069
H         12.61262       74.06088       59.94664
H         12.50092       73.40453       58.52807
O         13.40899       76.88535       57.61296
H         12.59566       76.57918       57.13895
H         13.22714       77.82985       57.84469
O         13.65924       74.28178       55.66203
H         14.16037       73.45964       55.43130
H         13.88085       74.92058       54.93869
O         16.77380       76.96547       55.85688
H         16.27637       77.80481       56.02128
H         16.52851       76.69980       54.93544
O         15.28369       76.48581       60.49795
H         14.39482       76.45042       60.93257
H         15.85951       75.90950       61.06089

Ca 1.0



