%chk=apoCaM-CA-Ng.loop2.water2.frame916.chk
%nprocshared=20
%mem=10GB
%nosave
#b3lyp/svp scf=(tight,noincore,xqc) Test 
#IOP(5/87=12) Density=Current Pop=(MK,readradii) iop(6/33=2) iop(6/42=6)

apoCaM-CA-Ng.loop2.water2.frame916 

   -2  1 
C          0.83940       13.91913       14.41533
C          1.59137       13.21591       13.32526
O          2.10585       13.87153       12.43027
H         -0.21356       13.56847       14.42786
H          1.31011       13.69338       15.39576
H          0.85157       15.01875       14.25910
N          1.70164       11.85906       13.34771
C          2.43694       11.09887       12.34281
C          3.88793       11.54249       12.31905
O          4.38613       11.86812       11.25170
C          2.32228        9.58752       12.62933
C          2.96308        8.76222       11.54673
O          3.96901        7.91878       11.84502
O          2.56481        8.84249       10.39500
H          1.24736       11.34994       14.12263
H          1.97464       11.28199       11.34600
H          1.24699        9.30788       12.67578
H          2.78500        9.34837       13.61141
N          4.60240       11.62363       13.47916
C          5.97621       12.11618       13.56247
C          6.41788       12.14682       15.02431
O          5.73521       12.80246       15.80082
C          6.10443       13.55085       13.01827
H          4.12717       11.34417       14.35205
H          6.61317       11.48161       12.92615
H          5.44927       14.25170       13.57717
H          7.15885       13.89036       13.11579
H          5.85253       13.61394       11.94259
N          7.54152       11.54598       15.51501
C          8.52236       10.78099       14.75196
C          8.95952        9.54171       15.51835
O          8.51003        9.33569       16.63645
C          9.69359       11.70142       14.33877
C         10.39158       12.39509       15.47814
O         11.58810       12.23677       15.64277
O          9.72570       13.25925       16.26859
H          7.75635       11.72308       16.50899
H          8.08234       10.38505       13.82265
H          9.29408       12.49427       13.67092
H         10.43194       11.11486       13.75125
N          9.78366        8.62635       14.93119
C         10.18698        7.38189       15.56983
C         11.65594        7.09515       15.34152
O         11.93681        6.13363       14.63964
H         10.07057        8.77698       13.95189
H          9.61368        6.56783       15.07398
H          9.93320        7.34662       16.64854
N         12.67753        7.85206       15.83446
C         12.54118        9.01374       16.70531
C         12.23698        8.55492       18.12807
O         13.07021        7.89155       18.73014
C         13.86100        9.81566       16.61149
C         13.92048       11.14828       17.29778
N         15.03016       11.90495       17.13280
O         12.98789       11.56384       17.96741
H         13.62935        7.58645       15.53062
H         11.73846        9.66652       16.30616
H         14.03183       10.02650       15.53197
H         14.70653        9.19475       16.97962
H         15.81459       11.56628       16.55709
H         15.11317       12.83475       17.55314
N         11.02946        8.82067       18.70301
C         10.62204        8.30717       20.00377
C         11.18088        9.07427       21.18601
O         10.92297        8.65675       22.30590
H         10.32663        9.31728       18.14974
H         10.89369        7.22994       20.07032
H          9.51539        8.36929       20.08472
N         11.93256       10.20114       21.03168
C         12.52392       10.94346       22.14185
C         12.08559       12.39435       22.12001
O         12.23065       13.03732       21.09385
C         14.06346       10.88559       22.04166
C         14.58125        9.45795       22.18770
O         14.50745       11.39742       20.81084
H         12.12807       10.54250       20.08280
H         12.24410       10.50190       23.12398
H         14.49946       11.47146       22.88741
H         14.68759       12.36122       20.94939
H         15.69047        9.46308       22.14673
H         14.26183        9.03352       23.16290
H         14.19841        8.81604       21.36640
N         11.59581       13.00251       23.23794
C         11.31275       14.43759       23.27278
C         12.65398       15.16973       23.12913
O         13.55112       14.91859       23.92119
C         10.55605       14.86381       24.57549
C         10.12244       16.35222       24.45962
C          9.30510       13.98459       24.80419
C          9.51546       16.94876       25.73053
H         11.48541       12.43985       24.09271
H         10.62848       14.67908       22.42740
H         11.23898       14.73740       25.44427
H          9.39511       16.46786       23.62444
H         11.00579       16.96609       24.23383
H          9.56345       12.91624       24.92977
H          8.78067       14.26568       25.73777
H          8.60012       14.07616       23.95060
H          8.58122       16.43581       26.03053
H         10.25177       16.90098       26.55988
H          9.26141       18.01496       25.54517
N         12.86215       16.06172       22.12198
C         14.13772       16.71368       21.82925
C         14.07224       18.21252       22.06708
O         15.03610       18.88458       21.71701
C         14.51766       16.45089       20.35134
C         14.98720       15.04879       20.08791
O         16.01963       14.65177       20.60469
O         14.34067       14.25611       19.21287
H         12.07046       16.30453       21.51961
H         14.96078       16.34127       22.47809
H         15.37513       17.09405       20.05429
H         13.66273       16.71855       19.69274
N         13.03077       18.81230       22.71417
C         13.01347       20.23983       22.98137
C         11.59500       20.77691       22.81251
O         10.74559       20.42179       23.62107
C         13.52793       20.49546       24.41936
C         14.01293       21.91022       24.62355
C         13.32340       22.81346       25.44810
C         15.20955       22.32053       24.00594
C         13.82095       24.10887       25.64091
C         15.70942       23.60816       24.21261
C         15.01426       24.50361       25.02734
H         12.27926       18.23880       23.10727
H         13.71779       20.73583       22.28277
H         14.40262       19.84252       24.63561
H         12.74366       20.21010       25.15460
H         12.40304       22.51962       25.93583
H         15.76775       21.63327       23.38139
H         13.28595       24.80680       26.27139
H         16.63902       23.90847       23.74530
H         15.40365       25.50130       25.18566
N         11.23915       21.63605       21.81326
C          9.94555       22.30180       21.74847
C          8.77516       21.43745       21.29035
O          7.67819       21.97835       21.25076
C         10.20663       23.45347       20.76994
C         11.19450       22.82608       19.80834
C         12.12871       22.09200       20.76538
H          9.67878       22.73873       22.73693
H          9.30196       23.90834       20.31260
H         10.76063       24.25402       21.31178
H         10.63852       22.06969       19.20710
H         11.70691       23.52467       19.11431
H         12.62282       21.25695       20.22223
H         12.88698       22.77042       21.21515
N          8.89067       20.13034       20.90649
C          7.72434       19.38943       20.40790
C          6.67327       19.10824       21.47852
O          5.61847       18.60127       21.12110
C          8.13614       18.09735       19.67743
C          8.70398       17.01002       20.58696
C          9.28586       15.92204       19.74210
O         10.60788       15.75614       19.81449
O          8.60480       15.23882       18.99386
H          9.82297       19.69269       20.88682
H          7.25446       20.02208       19.62230
H          8.89715       18.37908       18.91501
H          7.25992       17.67157       19.13955
H          7.93548       16.60289       21.27867
H          9.52523       17.43868       21.20119
N          6.87626       19.40228       22.79724
C          5.88038       19.17509       23.82632
H          4.94355       18.73416       23.42526
H          6.29140       18.48794       24.59484
H          5.62727       20.14311       24.30803
H          7.76897       19.80890       23.10809
Ca        12.15070       14.50762       18.83307
O         13.05035       15.43892       16.07770
H         13.66743       16.10878       16.46654
H         12.27180       15.96751       15.76952
O          9.82458       11.89702       19.04064
H          9.08460       12.32827       19.53584
H          9.37619       11.42766       18.29440

Ca 1.0



