%chk=apoCaM-CA-Ng.loop1.water3.frame732.chk
%nprocshared=20
%mem=10GB
%nosave
#b3lyp/svp scf=(tight,noincore,xqc) Test 
#IOP(5/87=12) Density=Current Pop=(MK,readradii) iop(6/33=2) iop(6/42=6)

apoCaM-CA-Ng.loop1.water3.frame732 

   0  1 
C         57.63494       23.50936        3.12100
C         58.37822       24.81121        3.12571
O         58.19973       25.60358        2.21088
H         56.97145       23.43910        2.23219
H         58.35394       22.66487        3.10252
H         57.00785       23.43857        4.03504
N         59.21604       25.11624        4.15636
C         59.90550       26.40066        4.24573
C         60.91456       26.60792        3.11908
O         61.20662       25.68487        2.37067
C         60.53641       26.59946        5.64801
C         61.58160       25.59147        6.05281
O         61.91543       24.68631        5.30833
O         62.14608       25.68342        7.27183
H         59.30581       24.43552        4.92674
H         59.13000       27.19171        4.14020
H         59.71873       26.54968        6.39957
H         60.98875       27.61136        5.71065
N         61.44512       27.84811        2.92480
C         62.31559       28.20332        1.80765
C         63.76460       27.99783        2.16206
O         64.23091       28.55286        3.14772
C         62.10171       29.68427        1.41187
C         60.75815       29.91923        0.69976
C         60.78894       29.38067       -0.74477
C         59.44839       29.56962       -1.45722
N         59.53688       29.11182       -2.84477
H         61.12644       28.60582        3.54818
H         62.08993       27.56852        0.93011
H         62.90925       30.03398        0.72971
H         62.16221       30.30690        2.33202
H         60.58078       31.01510        0.63912
H         59.93241       29.46574        1.28973
H         61.02661       28.29982       -0.77074
H         61.58112       29.92527       -1.30613
H         59.15752       30.64280       -1.44310
H         58.66922       28.98196       -0.92254
H         60.23088       29.69379       -3.36875
H         59.82754       28.10726       -2.87943
H         58.60148       29.20916       -3.30045
N         64.55308       27.24965        1.33789
C         65.98149       27.05230        1.54379
C         66.74080       27.64707        0.35919
O         66.13805       27.82403       -0.69135
C         66.25834       25.53406        1.63029
C         65.32635       24.84349        2.58464
O         65.31847       25.12587        3.77213
O         64.46030       23.93272        2.09567
H         64.12914       26.81425        0.50308
H         66.29799       27.55532        2.48236
H         67.30705       25.31643        1.90894
H         66.07792       25.09116        0.62720
N         68.06709       27.95119        0.39424
C         68.88120       27.89676        1.59783
C         70.35433       28.04534        1.30404
O         70.75054       28.14767        0.15039
H         68.49290       28.27114       -0.48958
H         68.77972       26.91037        2.08437
H         68.54265       28.68577        2.30356
N         71.24773       28.00591        2.32895
C         72.68013       27.92501        2.08904
C         72.96944       26.58547        1.43096
O         72.71407       25.55846        2.04685
C         73.45582       28.05573        3.41754
C         74.94274       27.93527        3.22483
O         75.62360       26.95524        3.84960
O         75.53950       28.72236        2.50767
H         70.89227       27.97687        3.29765
H         72.98898       28.77021        1.43264
H         73.11819       27.26894        4.12732
H         73.23590       29.04640        3.87232
N         73.49532       26.51831        0.17565
C         73.82805       25.25435       -0.46042
C         72.63748       24.36258       -0.77495
O         72.87649       23.23094       -1.17072
H         73.71831       27.39070       -0.32636
H         74.52589       24.71281        0.20900
H         74.36777       25.44238       -1.41282
N         71.34059       24.78411       -0.68430
C         70.22178       23.89708       -0.99810
C         70.08174       22.87304        0.11011
O         69.82876       23.25683        1.24466
C         68.89413       24.66723       -1.17929
C         68.98924       25.67529       -2.33383
O         67.87563       23.74085       -1.46401
H         71.14578       25.75843       -0.42756
H         70.42754       23.39567       -1.97168
H         68.65907       25.20517       -0.23343
H         67.01169       24.22123       -1.38152
H         69.22924       25.15190       -3.28430
H         68.01942       26.20172       -2.45501
H         69.76884       26.43939       -2.13928
N         70.28014       21.55132       -0.14429
C         70.27330       20.53239        0.89742
C         71.70121       20.27140        1.32235
O         71.95875       20.24549        2.51771
C         69.57031       19.22683        0.43127
C         68.15602       19.47436       -0.15444
C         69.51060       18.20285        1.58656
C         67.17452       20.17918        0.78584
H         70.54865       21.27156       -1.10007
H         69.72450       20.89704        1.79525
H         70.17224       18.76988       -0.38593
H         67.71997       18.49583       -0.45482
H         68.24756       20.08903       -1.07493
H         69.02823       17.26148        1.24939
H         70.53043       17.94384        1.94102
H         68.94366       18.60375        2.45306
H         67.01378       19.59420        1.71290
H         67.53684       21.19523        1.04491
H         66.19572       20.28929        0.27339
N         72.69795       20.14491        0.39692
C         74.09517       19.96996        0.77276
C         74.79849       19.03838       -0.20127
O         74.27307       18.72462       -1.26021
C         74.82115       21.34763        0.83323
C         74.19317       22.28431        1.87129
O         76.17209       21.17435        1.17454
H         72.47231       20.26684       -0.60044
H         74.14486       19.48699        1.77329
H         74.75416       21.81517       -0.17673
H         76.67125       21.94611        0.79773
H         74.22270       21.81432        2.87702
H         74.76710       23.23140        1.92316
H         73.14566       22.53430        1.60807
N         76.02832       18.56440        0.12720
C         76.86048       17.74851       -0.73738
C         77.05309       16.39012       -0.08296
O         76.70337       15.38739       -0.69072
C         78.17879       18.52929       -1.01177
C         79.14879       17.78878       -1.92870
O         78.84756       18.84663        0.18359
H         76.40472       18.80342        1.05457
H         76.36990       17.58611       -1.72425
H         77.90788       19.47105       -1.54923
H         78.53510       19.74575        0.46857
H         79.49500       16.85325       -1.45789
H         78.66975       17.55235       -2.90044
H         80.04037       18.42652       -2.11418
N         77.58917       16.28721        1.16495
C         77.82467       15.03003        1.86267
C         77.14046       15.03175        3.21370
O         77.33531       15.95537        3.99332
C         79.33814       14.84587        2.05829
C         80.00109       14.47595        0.72259
C         81.52917       14.40500        0.78450
C         82.16430       15.79253        0.97290
N         83.62085       15.71340        0.89037
H         77.87862       17.14733        1.65233
H         77.45298       14.15586        1.28256
H         79.53735       14.01007        2.76515
H         79.75176       15.77831        2.49689
H         79.71959       15.19342       -0.06659
H         79.61280       13.47808        0.41950
H         81.87792       13.99932       -0.18998
H         81.85204       13.70793        1.58835
H         81.87910       16.22270        1.95590
H         81.79673       16.47463        0.17300
H         83.99035       15.09111        1.64485
H         83.90593       15.34394       -0.04601
H         84.02120       16.67192        1.00903
N         76.39756       13.95347        3.59038
C         75.84126       13.79610        4.92626
C         74.71912       14.79834        5.19176
O         74.88378       15.58755        6.11105
C         75.47097       12.31458        5.16478
C         74.94420       12.04333        6.57797
C         74.74164       10.56866        6.78247
O         75.78891        9.72520        6.69320
O         73.63242       10.12745        7.03550
H         76.31271       13.16499        2.92968
H         76.65914       13.99496        5.65814
H         76.40303       11.72318        5.01698
H         74.74400       11.94311        4.42190
H         73.98272       12.58247        6.72310
H         75.67386       12.40517        7.33370
N         73.56397       14.88707        4.46802
C         73.21303       14.04778        3.34420
H         72.23914       14.37886        2.92483
H         73.97701       14.12568        2.54474
H         73.07458       13.00040        3.66486
H         72.88607       15.62074        4.72884
Ca        62.84138       22.94233        3.31225
O         64.26650       22.41958        5.73636
H         64.37180       23.08751        6.45908
H         64.83849       21.65866        6.00680
O         61.45950       22.53700        0.73855
H         61.57321       23.10707       -0.06272
H         60.60074       22.06646        0.59338
O         64.42313       20.42707        3.01030
H         65.29201       20.27907        3.46070
H         63.74896       20.10697        3.66120

Ca 1.0



