%chk=apoCaM-CA-Ng.loop3.water5.frame143.chk
%nprocshared=20
%mem=10GB
%nosave
#b3lyp/svp scf=(tight,noincore,xqc) Test 
#IOP(5/87=12) Density=Current Pop=(MK,readradii) iop(6/33=2) iop(6/42=6)

apoCaM-CA-Ng.loop3.water5.frame143 

   0  1 
C         48.63367       21.49879        2.27436
C         48.46707       20.03201        2.54280
O         48.65802       19.62671        3.67762
H         47.93293       22.07168        2.91891
H         49.67368       21.80659        2.51128
H         48.41985       21.74622        1.21386
N         48.09730       19.17263        1.54677
C         47.86681       17.74077        1.73892
C         49.14822       16.97013        2.09231
O         49.05298       15.80430        2.44841
C         46.71638       17.53500        2.75812
C         46.20489       16.12186        2.78750
O         45.73533       15.61732        1.77961
O         46.23806       15.41430        3.93248
H         47.93414       19.55495        0.60285
H         47.50713       17.32593        0.77092
H         45.86062       18.18405        2.46884
H         47.04017       17.82452        3.77666
N         50.38666       17.52659        1.93070
C         51.64682       16.83733        2.21961
C         52.50087       17.67634        3.17015
O         53.71220       17.50589        3.20987
C         52.41532       16.61479        0.90108
C         51.61602       15.77715       -0.11152
C         52.38446       15.55620       -1.42730
C         53.65961       14.69652       -1.30798
N         53.36450       13.31908       -0.90740
H         50.46367       18.47985        1.54690
H         51.48344       15.83547        2.67508
H         53.36033       16.08546        1.14283
H         52.66354       17.59878        0.44477
H         50.68345       16.32706       -0.36160
H         51.31994       14.80473        0.33420
H         52.66102       16.55056       -1.84088
H         51.70463       15.06614       -2.15695
H         54.38621       15.14999       -0.60161
H         54.14908       14.67485       -2.30637
H         52.95889       13.28739        0.05424
H         52.70245       12.88185       -1.58926
H         54.25303       12.76799       -0.90561
N         51.92010       18.62073        3.95800
C         52.63963       19.58609        4.77976
C         53.57001       18.88538        5.75258
O         53.13892       17.97474        6.44492
C         51.59619       20.45944        5.50869
C         52.09286       21.75996        6.12458
O         53.05782       21.59426        7.10998
O         52.60082       22.65707        5.18608
H         50.89484       18.67493        3.95681
H         53.22222       20.24834        4.10215
H         51.08147       19.84953        6.28099
H         50.83355       20.79165        4.77253
N         54.87182       19.27361        5.84996
C         55.84982       18.65422        6.72974
C         55.39018       18.61840        8.16675
O         55.41469       17.54797        8.75851
H         55.19171       20.06854        5.27727
H         56.79593       19.23523        6.67096
H         56.06756       17.62005        6.38342
N         54.92938       19.74419        8.78355
C         54.48357       19.76632       10.17307
C         52.96335       19.90360       10.29522
O         52.48739       20.61464       11.16979
C         55.29807       20.82286       10.96230
C         55.11701       22.25508       10.49742
N         55.87957       23.23443       11.03382
O         54.29724       22.54002        9.63731
H         54.89206       20.61017        8.23735
H         54.70644       18.78244       10.64103
H         56.37385       20.56460       10.84657
H         55.05072       20.76887       12.04428
H         56.58419       23.02061       11.75357
H         55.78010       24.20839       10.71662
N         52.14377       19.13169        9.51919
C         50.71444       18.95837        9.76064
C         49.82744       20.18515        9.63042
O         48.70355       20.11806       10.10657
H         52.56911       18.54277        8.79172
H         50.61033       18.56478       10.79379
H         50.31147       18.18123        9.07444
N         50.21997       21.31120        8.97747
C         49.41561       22.52988        8.89583
C         50.22495       23.68985        9.41037
O         51.34219       23.89717        8.95643
C         48.94954       22.87781        7.46989
C         47.74424       22.08110        7.03593
C         46.47304       22.68641        7.07846
C         47.85451       20.75854        6.58688
C         45.33717       21.98552        6.67585
C         46.71397       20.06132        6.16890
C         45.45214       20.67455        6.21073
O         44.34638       20.01844        5.80593
H         51.14204       21.31360        8.53360
H         48.49051       22.45257        9.51058
H         49.76000       22.86275        6.71635
H         48.61121       23.93875        7.51456
H         46.35599       23.70325        7.43434
H         48.81769       20.27416        6.54284
H         44.36797       22.46680        6.72220
H         46.81123       19.04645        5.81040
H         44.38054       19.11673        5.45747
N         49.68491       24.52777       10.33388
C         50.41588       25.64607       10.89484
C         51.21312       25.10056       12.05357
O         52.42476       25.26312       12.06500
C         49.45718       26.81532       11.27477
C         48.54697       27.24784       10.08804
C         50.23778       28.03875       11.79834
C         49.28923       27.76021        8.84615
H         48.73414       24.33908       10.68821
H         51.12023       26.05868       10.14098
H         48.78161       26.46643       12.08743
H         47.86152       28.05104       10.43748
H         47.91064       26.39290        9.77666
H         49.53292       28.84656       12.09010
H         50.84277       27.79370       12.68272
H         50.94216       28.43067       11.03773
H         49.89420       28.66059        9.07485
H         49.94486       26.97457        8.42025
H         48.55008       28.04447        8.06836
N         50.60694       24.37361       13.04129
C         51.37410       23.78505       14.13330
C         52.00423       24.85894       15.00459
O         52.89240       24.53635       15.77940
C         50.50990       22.84143       14.98389
O         49.94416       21.83449       14.18664
H         49.59031       24.20526       12.98873
H         52.18876       23.17835       13.67518
H         49.68775       23.41337       15.46407
H         51.11245       22.38093       15.80001
H         50.67079       21.19044       13.97840
N         51.61660       26.16575       14.89575
C         52.25899       27.28280       15.56367
C         53.71659       27.35187       15.14891
O         54.59252       27.28536       16.00250
C         52.04634       27.20798       17.08030
H         50.83072       26.40346       14.28352
H         51.76884       28.22364       15.22398
H         50.95720       27.18643       17.29977
H         52.51732       26.30609       17.51960
H         52.47995       28.10917       17.56350
N         54.04774       27.49638       13.83095
C         55.43530       27.55617       13.37558
C         55.57200       27.98914       11.92146
O         54.58321       28.13981       11.21598
C         56.12162       26.19398       13.57266
H         53.27983       27.59940       13.15001
H         55.95343       28.33675       13.97590
H         57.18805       26.23574       13.26893
H         56.09493       25.87551       14.63328
H         55.60784       25.42093       12.96286
N         56.81431       28.28181       11.43922
C         57.10282       28.81921       10.11444
C         56.31750       30.10232        9.89246
O         55.65584       30.24587        8.87272
C         56.85829       27.78157        8.99564
C         57.65446       26.48856        9.21025
C         57.43167       25.54362        8.06623
O         58.37281       25.15476        7.39336
O         56.18822       25.12444        7.77399
H         57.61845       28.18901       12.07947
H         58.18508       29.08039       10.09157
H         57.16811       28.23151        8.02513
H         55.77655       27.53779        8.93642
H         57.32407       25.99660       10.14893
H         58.73837       26.72133        9.29462
N         56.31803       31.06789       10.85371
C         55.55834       32.29688       10.75018
H         54.79357       32.32107       11.55521
H         56.24072       33.16219       10.87405
H         55.03858       32.39433        9.77392
H         56.85066       30.91231       11.72279
Ca        53.98076       23.62883        6.70616
O         54.94200       25.01456        4.30450
H         54.45105       24.24272        3.92571
H         54.27481       25.74554        4.32116
O         56.37044       22.00117        6.55989
H         56.45432       22.62355        5.79477
H         56.50306       22.56354        7.36308
O         53.66395       25.70615        9.18808
H         53.41259       26.64513        9.37147
H         53.92091       25.34573       10.07042
O         53.79880       27.06010        6.68855
H         53.00395       27.60742        6.46851
H         54.56033       27.54424        6.28197
O         51.14137       25.24198        6.04366
H         50.92788       24.75409        5.20914
H         50.31304       25.74081        6.25416

Ca 1.0



