%chk=apoCaM-CA-Ng.loop1.water6.frame586.chk
%nprocshared=20
%mem=10GB
%nosave
#b3lyp/svp scf=(tight,noincore,xqc) Test 
#IOP(5/87=12) Density=Current Pop=(MK,readradii) iop(6/33=2) iop(6/42=6)

apoCaM-CA-Ng.loop1.water6.frame586 

   0  1 
C         87.93036      123.67084       97.53021
C         86.97694      124.04159       98.62691
O         87.30491      123.86910       99.79124
H         88.87401      123.26173       97.94940
H         87.46497      122.90026       96.87989
H         88.16653      124.56745       96.91974
N         85.75817      124.55769       98.31191
C         84.75323      124.92875       99.30406
C         83.51371      124.07094       99.11297
O         83.48686      123.24642       98.21055
C         84.40820      126.42874       99.15225
C         85.58781      127.31851       99.43725
O         85.53215      128.20133      100.45313
O         86.59121      127.26243       98.74449
H         85.52244      124.68661       97.31496
H         85.11996      124.75132      100.33800
H         83.60500      126.70435       99.86683
H         84.03330      126.63482       98.12543
N         82.42643      124.24212       99.92183
C         81.17042      123.53372       99.70864
C         80.15603      124.48810       99.13051
O         80.40520      125.68181       99.05252
C         80.63983      122.92509      101.01409
C         81.49979      121.77600      101.54169
C         80.91995      121.28911      102.87513
C         81.70182      120.10373      103.44442
N         81.18193      119.73671      104.76170
H         82.45449      124.96031      100.65907
H         81.29524      122.73264       98.94712
H         79.62665      122.51036      100.84424
H         80.55819      123.73196      101.77568
H         82.54569      122.11805      101.69549
H         81.49682      120.94731      100.79808
H         79.85875      120.98251      102.73870
H         80.95596      122.13164      103.60011
H         82.77620      120.37444      103.54019
H         81.61495      119.23587      102.75256
H         80.17016      119.47921      104.69495
H         81.71967      118.91971      105.12969
H         81.29529      120.53964      105.42328
N         79.00098      123.97996       98.61945
C         78.05165      124.75965       97.84553
C         76.86562      123.85924       97.46983
O         76.81998      123.39107       96.34101
C         78.79068      125.31520       96.58702
C         77.85120      125.98790       95.64459
O         77.70137      125.53933       94.51854
O         77.07634      127.00195       96.05789
H         78.84357      122.96546       98.70088
H         77.67152      125.62702       98.42589
H         79.29017      124.47407       96.05604
H         79.56842      126.05256       96.86559
N         75.82864      123.58192       98.31731
C         75.65141      124.10696       99.66311
C         76.43799      123.36212      100.71542
O         77.16886      122.43697      100.39834
H         75.04684      123.02350       97.93831
H         74.58519      123.96323       99.94228
H         75.84069      125.19961       99.69084
N         76.25416      123.68534      102.02795
C         76.91133      123.00097      103.14040
C         75.94612      122.10551      103.91176
O         76.37170      121.47523      104.87084
C         77.64133      124.01959      104.04451
C         76.76410      125.02159      104.75679
O         77.33995      125.95168      105.54166
O         75.54823      125.00412      104.64768
H         75.57213      124.42719      102.24520
H         77.69242      122.31272      102.75046
H         78.36967      124.57661      103.41652
H         78.21638      123.46506      104.81771
N         74.65384      121.93513      103.50509
C         73.72746      120.96932      104.07676
C         74.01233      119.52655      103.66806
O         73.09133      118.72663      103.75518
H         74.28690      122.49693      102.72428
H         72.73248      121.19746      103.63168
H         73.61593      121.08868      105.17583
N         75.23167      119.10978      103.20823
C         75.49418      117.78067      102.67011
C         76.17671      117.95719      101.33040
O         77.25651      118.53187      101.27883
C         76.39131      116.95093      103.60760
C         75.69280      116.67035      104.93953
O         76.68213      115.72281      102.98634
H         76.02795      119.75277      103.20415
H         74.54264      117.21800      102.53687
H         77.33145      117.52295      103.79669
H         77.60543      115.47065      103.24838
H         76.35543      116.05902      105.58720
H         75.45572      117.61656      105.46828
H         74.75034      116.10573      104.76673
N         75.57219      117.52405      100.19714
C         76.11694      117.73926       98.86400
C         75.29841      118.83503       98.21727
O         75.87491      119.81771       97.77034
C         76.12746      116.41237       98.05829
C         76.87893      115.27479       98.80472
C         76.71514      116.62611       96.65062
C         78.34439      115.56996       99.14618
H         74.64779      117.07585      100.28125
H         77.16450      118.11137       98.91248
H         75.07771      116.06652       97.92821
H         76.84047      114.35291       98.18418
H         76.34839      115.05114       99.75525
H         76.11233      117.36624       96.08393
H         77.75921      116.99908       96.70028
H         76.70145      115.67336       96.07965
H         78.94278      115.76245       98.23333
H         78.42763      116.43719       99.83198
H         78.78211      114.69168       99.66564
N         73.93740      118.78363       98.24395
C         73.08866      119.87885       97.79874
C         72.00595      119.36552       96.87123
O         71.90101      118.16172       96.67201
C         72.52323      120.63251       99.03230
C         71.70045      119.74405       99.97733
O         73.60009      121.18276       99.74835
H         73.47732      117.97232       98.68069
H         73.68614      120.61576       97.21769
H         71.87459      121.45815       98.65986
H         73.23462      121.91765      100.30666
H         71.31350      120.35782      100.81888
H         70.83782      119.29341       99.44542
H         72.32733      118.93862      100.41527
N         71.18001      120.24390       96.23636
C         70.15241      119.82869       95.29418
C         70.53084      120.31642       93.90709
O         70.79679      119.47760       93.05674
C         68.75400      120.29250       95.78208
C         67.64236      119.93070       94.79526
O         68.72213      121.68016       96.00587
H         71.31253      121.25410       96.39646
H         70.11039      118.71690       95.23661
H         68.53148      119.75204       96.73471
H         68.80764      121.82894       96.98425
H         66.66020      120.24571       95.20779
H         67.79415      120.45403       93.82683
H         67.62012      118.83532       94.61777
N         70.55603      121.64361       93.59201
C         70.88092      122.13017       92.25815
C         71.78427      123.33902       92.33251
O         71.45616      124.28744       93.03281
C         69.59857      122.50212       91.50031
C         69.95123      122.91065       90.05824
C         68.71786      123.17902       89.20557
C         69.15038      123.53124       87.77544
N         67.99153      123.75491       86.91669
H         70.26640      122.33306       94.29857
H         71.36803      121.32713       91.66006
H         69.05421      123.32122       92.01986
H         68.94200      121.60499       91.46874
H         70.53101      122.08575       89.58642
H         70.58281      123.82623       90.06547
H         68.13413      124.01758       89.64396
H         68.08430      122.26587       89.18527
H         69.75709      122.69687       87.35581
H         69.78345      124.44731       87.79015
H         67.40293      122.89106       86.88162
H         67.42719      124.55688       87.27919
H         68.32387      123.97809       85.95086
N         72.89473      123.41199       91.54828
C         73.75299      124.59045       91.51354
C         74.42619      124.85456       92.88358
O         73.73968      125.92223       93.47634
C         74.78557      124.51712       90.37021
C         74.07713      124.60709       89.00278
C         75.05503      124.60287       87.86579
O         74.98832      123.74236       87.00285
O         75.99037      125.56771       87.77329
H         73.11302      122.61796       90.92679
H         73.13118      125.48282       91.26725
H         75.39690      123.59283       90.44127
H         75.46643      125.39378       90.45284
H         73.50047      125.55744       88.94926
H         73.36281      123.76456       88.88258
N         74.39278      123.68822       93.78441
C         75.31361      122.62332       93.38270
H         76.36911      122.95641       93.47070
H         75.15771      121.74628       94.04789
H         75.11379      122.27801       92.34971
H         74.67002      123.99435       94.74543
Ca        75.16298      126.87611       94.93721
O         76.85557      128.18551       92.26082
H         77.57655      127.54590       92.03380
H         76.51101      128.49257       91.38469
O         74.55670      130.31950       93.23563
H         74.96903      131.20649       93.08248
H         73.88791      130.22926       92.51125
O         72.25538      128.18890       93.97717
H         72.27437      128.28711       92.99178
H         71.72281      128.95838       94.29728
O         77.11190      129.98253       95.13576
H         77.65219      130.73426       94.78462
H         77.15973      130.08017       96.11999
O         73.61212      125.42721       97.00915
H         73.00511      125.74881       96.29589
H         73.87775      126.24636       97.49822
O         74.07640      129.44917       96.39254
H         74.17846      130.33316       96.82654
H         73.20853      129.10698       96.72443

Ca 1.0



