%chk=apoCaM-CA-Ng.loop3.water3.frame783.chk
%nprocshared=20
%mem=10GB
%nosave
#b3lyp/svp scf=(tight,noincore,xqc) Test 
#IOP(5/87=12) Density=Current Pop=(MK,readradii) iop(6/33=2) iop(6/42=6)

apoCaM-CA-Ng.loop3.water3.frame783 

   0  1 
C         94.27705      -13.85495      -16.18572
C         93.35334      -14.30124      -17.28340
O         93.81210      -14.94095      -18.21813
H         95.06792      -13.19641      -16.59782
H         93.73026      -13.30355      -15.39129
H         94.75066      -14.74556      -15.72040
N         92.02010      -14.03152      -17.21404
C         91.05264      -14.54271      -18.18735
C         91.25070      -13.86540      -19.55397
O         91.91556      -12.83894      -19.60130
C         89.62327      -14.30359      -17.61508
C         88.57452      -15.30976      -18.01117
O         87.93371      -16.00712      -17.05511
O         88.26819      -15.49346      -19.16908
H         91.68155      -13.50941      -16.39049
H         91.22564      -15.63424      -18.25593
H         89.30518      -13.26057      -17.82563
H         89.66352      -14.40354      -16.50830
N         90.68567      -14.36049      -20.69802
C         90.71729      -13.65491      -21.98976
C         89.31446      -13.24831      -22.44853
O         89.21381      -12.39851      -23.32275
C         91.37814      -14.49736      -23.09673
C         92.86856      -14.77462      -22.85944
C         93.43866      -15.58771      -24.03344
C         94.94492      -15.83450      -23.88724
N         95.45120      -16.62693      -25.00941
H         90.19663      -15.26049      -20.64066
H         91.28561      -12.70453      -21.88352
H         91.29671      -13.93996      -24.05738
H         90.82464      -15.45574      -23.20494
H         93.00896      -15.33645      -21.91074
H         93.40909      -13.80475      -22.78761
H         93.26449      -15.03620      -24.98438
H         92.90996      -16.56457      -24.08838
H         95.14573      -16.37511      -22.93635
H         95.47828      -14.85793      -23.85891
H         96.48039      -16.77024      -24.89433
H         94.98073      -17.56106      -25.03041
H         95.27936      -16.12805      -25.91291
N         88.19368      -13.79312      -21.89877
C         86.82790      -13.36849      -22.16535
C         86.19472      -12.78031      -20.89219
O         85.03137      -12.40649      -20.93144
C         86.03260      -14.54253      -22.78420
C         85.97913      -15.78420      -21.93578
O         85.37966      -15.76369      -20.73563
O         86.44975      -16.83089      -22.35109
H         88.29135      -14.54657      -21.22407
H         86.81091      -12.55276      -22.92069
H         86.51616      -14.80325      -23.75270
H         84.99451      -14.21656      -23.00604
N         86.93805      -12.58026      -19.75738
C         86.48918      -11.86557      -18.56889
C         85.52692      -12.59494      -17.65152
O         85.25322      -12.05103      -16.59109
H         87.93472      -12.83101      -19.75763
H         86.07327      -10.87712      -18.86003
H         87.38934      -11.66967      -17.94610
N         84.96313      -13.79415      -17.96172
C         84.04005      -14.50063      -17.07372
C         84.48078      -15.97245      -16.92259
O         84.49091      -16.56475      -18.19364
C         82.61018      -14.39415      -17.64735
C         82.12606      -12.96490      -17.60853
N         81.82222      -12.29824      -18.74544
O         82.00681      -12.40209      -16.52983
H         85.15084      -14.20421      -18.88243
H         84.03351      -14.05195      -16.05557
H         81.90115      -15.00053      -17.04400
H         82.59819      -14.78729      -18.68777
H         81.92049      -12.74783      -19.66667
H         81.49398      -11.32172      -18.70263
N         83.59323      -16.68887      -15.98124
C         83.71953      -18.15532      -16.02051
C         85.06670      -18.68376      -15.56365
O         85.85068      -17.95994      -14.96539
H         83.75592      -16.33889      -15.00853
H         83.52639      -18.49356      -17.05972
H         82.92605      -18.62234      -15.39910
N         85.41970      -19.95345      -15.91792
C         86.72027      -20.56236      -15.63646
C         87.86749      -19.66558      -16.19893
O         87.74960      -19.64024      -17.59396
C         86.79467      -21.96525      -16.30983
C         85.71181      -22.92897      -15.88618
C         85.71008      -23.49119      -14.60109
C         84.70429      -23.29803      -16.79808
C         84.72304      -24.41627      -14.23870
C         83.71235      -24.20870      -16.42933
C         83.72049      -24.77677      -15.15295
O         82.76585      -25.66894      -14.82026
H         84.73058      -20.49363      -16.46288
H         86.83526      -20.65552      -14.53437
H         87.78206      -22.44272      -16.13302
H         86.70520      -21.81382      -17.40747
H         86.48329      -23.23020      -13.88994
H         84.68061      -22.87711      -17.79604
H         84.74099      -24.85652      -13.25013
H         82.94096      -24.47811      -17.14064
H         82.74126      -26.09909      -13.95395
N         89.20033      -20.18325      -15.81807
C         90.35262      -19.25191      -15.96488
C         90.67093      -18.99655      -17.43797
O         89.83849      -18.48267      -18.16639
C         90.22143      -17.92861      -15.14462
C         91.47988      -17.02029      -15.29449
C         89.94160      -18.19070      -13.65274
C         92.79512      -17.60072      -14.75463
H         89.17434      -20.52293      -14.82907
H         91.22375      -19.79010      -15.53512
H         89.36121      -17.35612      -15.54170
H         91.29437      -16.05675      -14.77218
H         91.63299      -16.78530      -16.36363
H         90.74141      -18.81101      -13.19644
H         89.87753      -17.22840      -13.10095
H         88.97307      -18.71097      -13.51274
H         93.61492      -16.87409      -14.93339
H         92.73804      -17.78481      -13.66336
H         93.07379      -18.54131      -15.26564
N         91.90183      -19.30125      -17.93380
C         92.22683      -19.24256      -19.35654
C         92.90806      -20.52205      -19.84082
O         93.17365      -20.61019      -21.03420
C         93.11238      -18.02290      -19.64515
O         94.33498      -18.10612      -18.96322
H         92.63993      -19.56639      -17.27013
H         91.29743      -19.11799      -19.95074
H         92.57433      -17.08891      -19.37582
H         93.31574      -17.94742      -20.73529
H         94.18595      -17.72059      -18.06072
N         93.26705      -21.53429      -18.99306
C         94.01521      -22.70630      -19.43199
C         93.18516      -23.59671      -20.33852
O         91.96812      -23.47403      -20.32086
C         94.45318      -23.51891      -18.20897
H         93.06540      -21.46218      -17.98810
H         94.91537      -22.33798      -19.96958
H         95.11867      -22.90262      -17.56608
H         93.56881      -23.82976      -17.61279
H         94.98467      -24.43499      -18.51079
N         93.73695      -24.51495      -21.18894
C         95.16429      -24.64995      -21.48308
C         95.51765      -26.09635      -21.81736
O         94.77522      -26.70250      -22.57821
C         95.47124      -23.78529      -22.70707
H         93.07854      -25.01837      -21.80500
H         95.79942      -24.25716      -20.67167
H         94.86822      -24.10868      -23.58240
H         95.23185      -22.72276      -22.48647
H         96.55020      -23.85272      -22.96305
N         96.66211      -26.72264      -21.40548
C         97.71964      -26.12605      -20.59590
C         97.25529      -25.94268      -19.16923
O         97.35482      -24.83970      -18.65126
C         98.98337      -27.01889      -20.62871
C        100.18668      -26.33892      -19.95348
C        101.40607      -27.21183      -20.02150
O        102.40506      -26.82882      -20.60950
O        101.40841      -28.41713      -19.42069
H         96.81994      -27.67876      -21.76379
H         98.01555      -25.15420      -21.05186
H         99.25575      -27.20493      -21.69170
H         98.77483      -28.00084      -20.14965
H         99.96777      -26.12499      -18.88631
H        100.39272      -25.37481      -20.47056
N         96.74457      -26.99914      -18.47423
C         96.26116      -26.90933      -17.11216
H         95.18735      -27.19200      -17.08817
H         96.83094      -27.61488      -16.47236
H         96.36332      -25.88720      -16.69219
H         96.67596      -27.91832      -18.93684
Ca        86.11824      -18.15118      -18.13459
O         84.63701      -20.27211      -19.74424
H         84.08431      -20.00277      -18.96845
H         85.40205      -20.75751      -19.34533
O         87.92015      -19.95868      -20.48638
H         88.78783      -20.38557      -20.27273
H         87.72926      -20.23258      -21.41814
O         89.64178      -17.64923      -21.33641
H         90.47992      -17.62289      -21.86248
H         88.92374      -17.58018      -22.01245

Ca 1.0



