%chk=apoCaM-CA-Ng.loop2.water4.frame706.chk
%nprocshared=20
%mem=10GB
%nosave
#b3lyp/svp scf=(tight,noincore,xqc) Test 
#IOP(5/87=12) Density=Current Pop=(MK,readradii) iop(6/33=2) iop(6/42=6)

apoCaM-CA-Ng.loop2.water4.frame706 

   -2  1 
C        104.46714       95.84640      -14.70376
C        105.87043       95.49923      -15.10186
O        106.49359       96.26484      -15.82385
H        103.77186       95.05626      -15.05655
H        104.40275       95.92417      -13.59823
H        104.16007       96.81746      -15.14827
N        106.43538       94.33867      -14.66530
C        107.79636       93.94551      -15.01214
C        108.77487       94.95203      -14.43797
O        108.82014       95.10951      -13.22474
C        108.08999       92.52492      -14.48183
C        109.44897       92.02058      -14.89247
O        109.54544       91.02406      -15.59075
O        110.56643       92.64664      -14.47544
H        105.86522       93.71171      -14.07563
H        107.87610       93.91035      -16.12208
H        107.31741       91.83609      -14.89083
H        108.01367       92.50348      -13.37284
N        109.58471       95.68089      -15.25921
C        110.52354       96.67681      -14.74816
C        109.77858       97.78668      -14.02167
O        108.59354       97.95620      -14.27692
C        111.32665       97.27644      -15.91293
H        109.52828       95.51817      -16.27694
H        111.21419       96.16069      -14.04704
H        111.87899       96.47319      -16.44486
H        110.64114       97.77115      -16.63572
H        112.06063       98.03051      -15.56797
N        110.35869       98.59804      -13.09146
C        111.72777       98.49341      -12.58760
C        111.82154       97.47615      -11.44892
O        110.85950       96.76820      -11.18837
C        112.23783       99.90746      -12.20885
C        111.46393      100.55768      -11.09497
O        111.42480       99.99671       -9.87187
O        110.88395      101.61333      -11.29242
H        109.74734       99.30626      -12.65578
H        112.41482       98.15285      -13.38611
H        112.17953      100.54777      -13.11724
H        113.30656       99.87360      -11.91744
N        112.96370       97.36129      -10.71261
C        113.12989       96.41889       -9.61720
C        113.44234       95.02277      -10.11459
O        113.45052       94.81015      -11.32002
H        113.74890       98.00025      -10.89599
H        112.25467       96.44760       -8.93323
H        114.02226       96.74350       -9.04204
N        113.80075       94.01230       -9.26779
C        113.83819       94.13367       -7.80760
C        112.43118       94.11811       -7.22300
O        111.48168       93.91359       -7.96500
C        114.71830       93.02268       -7.17679
C        114.17020       91.61646       -7.30660
N        113.88667       90.88631       -6.20247
O        114.00116       91.12107       -8.41010
H        114.11485       93.13433       -9.70445
H        114.34264       95.08784       -7.54728
H        114.85463       93.25634       -6.09916
H        115.72900       93.05933       -7.63876
H        114.02906       91.27306       -5.25810
H        113.52695       89.92443       -6.29123
N        112.23044       94.29878       -5.88338
C        110.91601       94.21759       -5.25886
C        110.50605       95.47548       -4.51403
O        109.42749       95.45490       -3.93564
H        113.04375       94.45967       -5.27160
H        110.93647       93.37736       -4.53048
H        110.12543       93.98846       -6.00362
N        111.29448       96.58940       -4.43852
C        110.92223       97.75009       -3.62865
C        109.66651       98.45524       -4.22306
O        110.00955       99.49694       -5.09683
C        112.14855       98.69242       -3.46032
C        111.86844       99.92904       -2.60406
O        113.19534       97.97391       -2.85326
H        112.21263       96.58580       -4.90582
H        110.66637       97.36480       -2.61453
H        112.46284       99.05883       -4.46633
H        113.89873       97.82449       -3.53779
H        111.09740      100.57624       -3.06879
H        111.53915       99.63027       -1.58666
H        112.79456      100.53510       -2.51748
N        108.73557       98.90575       -3.17532
C        107.48605       99.53087       -3.65912
C        107.68820      101.02119       -3.92324
O        108.06698      101.73360       -3.00282
C        106.36836       99.31727       -2.59054
C        105.06737      100.09736       -2.93973
C        106.07493       97.80943       -2.43919
C        104.02340      100.06726       -1.82057
H        109.19076       99.47198       -2.42562
H        107.15294       99.02659       -4.58669
H        106.74885       99.71008       -1.62114
H        104.62370       99.71403       -3.88428
H        105.30527      101.17173       -3.08523
H        105.66485       97.39889       -3.38834
H        106.99617       97.24711       -2.18196
H        105.34597       97.61598       -1.62754
H        103.16057      100.70609       -2.10450
H        103.64115       99.04417       -1.63825
H        104.46110      100.47067       -0.88147
N        107.39808      101.56523       -5.14522
C        107.50094      102.99109       -5.44011
C        106.17958      103.61056       -5.89935
O        106.17949      104.81519       -6.11380
C        108.52969      103.21708       -6.56395
C        109.87810      102.64799       -6.23822
O        110.37422      101.80237       -6.96499
O        110.55497      103.07906       -5.15744
H        107.09771      100.94853       -5.90774
H        107.83310      103.54527       -4.53386
H        108.64803      104.30776       -6.74551
H        108.14963      102.75037       -7.50010
N        105.02631      102.89301       -6.09365
C        103.81627      103.51014       -6.63775
C        103.14931      102.59483       -7.67035
O        102.02363      102.17801       -7.45828
C        102.86580      103.92104       -5.49023
C        101.66468      104.69637       -6.00302
C        101.83353      105.91828       -6.68592
C        100.36284      104.20266       -5.80762
C        100.72472      106.62029       -7.16919
C         99.25690      104.90995       -6.29197
C         99.43757      106.11612       -6.97339
H        104.99852      101.88703       -5.87375
H        104.07807      104.45034       -7.16384
H        103.41571      104.57677       -4.78047
H        102.55040      103.01015       -4.93635
H        102.82067      106.33104       -6.84937
H        100.20298      103.26762       -5.28637
H        100.86333      107.55574       -7.69695
H         98.25819      104.52157       -6.14099
H         98.58047      106.66066       -7.34911
N        103.77706      102.26241       -8.84132
C        103.16731      101.45968       -9.89852
C        102.61287      100.12851       -9.43807
O        101.61939       99.68178      -10.00144
C        104.32695      101.23633      -10.87774
C        105.09124      102.53225      -10.74399
C        105.08513      102.73628       -9.23186
H        102.36295      102.06561      -10.37229
H        104.99681      100.43119      -10.49631
H        104.00733      100.97583      -11.91034
H        106.09579      102.55320      -11.21444
H        104.46874      103.33320      -11.20740
H        105.84982      102.12010       -8.71201
H        105.25013      103.81558       -9.03023
N        103.22314       99.41094       -8.45616
C        102.74528       98.10102       -8.03434
C        101.42404       98.24886       -7.31185
O        100.43550       97.67805       -7.74603
C        103.72758       97.33843       -7.11357
C        105.12746       97.13733       -7.72011
C        106.00277       98.34290       -7.59334
O        107.15730       98.38562       -8.27247
O        105.87399       99.06379       -6.62020
H        104.05487       99.82160       -8.01808
H        102.63062       97.46501       -8.94230
H        103.28946       96.32712       -6.96260
H        103.81702       97.79893       -6.10490
H        105.07059       96.78131       -8.76987
H        105.64711       96.35472       -7.12622
N        101.35486       99.01198       -6.18172
C        100.14698       99.19524       -5.40538
H         99.28593       98.63364       -5.82268
H        100.32587       98.84424       -4.36683
H         99.89061      100.27489       -5.37838
H        102.20282       99.49344       -5.84715
Ca       108.88505       98.98232       -6.98359
O        108.30483       98.04140      -10.76684
H        107.47205       98.21361      -11.27291
H        108.31231       97.06164      -10.62709
O        107.94180      101.01137       -9.73098
H        107.81393      100.79315      -10.68794
H        108.91594      101.14575       -9.63102
O        108.94347       96.10562       -7.79366
H        109.84802       95.91921       -8.14700
H        109.08386       96.26954       -6.82787
O        112.25225       98.72844       -7.22942
H        113.05915       98.74388       -7.80210
H        112.19612       99.64698       -6.86536

Ca 1.0



