%chk=apoCaM-CA-Ng.loop2.water2.frame867.chk
%nprocshared=20
%mem=10GB
%nosave
#b3lyp/svp scf=(tight,noincore,xqc) Test 
#IOP(5/87=12) Density=Current Pop=(MK,readradii) iop(6/33=2) iop(6/42=6)

apoCaM-CA-Ng.loop2.water2.frame867 

   -2  1 
C         63.89476       31.87017       -1.47097
C         63.37961       32.00419       -2.87167
O         63.38810       31.03129       -3.61301
H         64.73959       32.57384       -1.31723
H         63.08306       32.11261       -0.75309
H         64.24835       30.83537       -1.27768
N         62.91332       33.20693       -3.30788
C         62.41944       33.42472       -4.66421
C         61.06047       32.75485       -4.91385
O         60.54237       32.89532       -6.01336
C         62.33675       34.94681       -4.93235
C         62.17420       35.26234       -6.39491
O         63.11403       34.86441       -7.27536
O         61.21012       35.89813       -6.78835
H         62.96723       34.00900       -2.65964
H         63.17809       33.01596       -5.36821
H         63.29182       35.42171       -4.61914
H         61.51441       35.39478       -4.33081
N         60.42057       32.01370       -3.95629
C         59.10677       31.40793       -4.16051
C         58.29814       31.40679       -2.85996
O         58.88091       31.64463       -1.81056
C         59.30522       29.96702       -4.64377
H         60.88297       31.84265       -3.05650
H         58.56549       31.99740       -4.92894
H         58.34105       29.46723       -4.84409
H         59.89419       29.95746       -5.58463
H         59.85626       29.37797       -3.87766
N         56.95953       31.13902       -2.79164
C         56.04591       30.99078       -3.92470
C         54.96922       32.06776       -3.86760
O         54.87152       32.77505       -2.87311
C         55.45430       29.56183       -4.01704
C         54.78246       29.01047       -2.78711
O         54.30895       27.88619       -2.82734
O         54.71455       29.70486       -1.63779
H         56.55186       31.12258       -1.84586
H         56.58355       31.16353       -4.87479
H         56.27301       28.85688       -4.25895
H         54.72860       29.53174       -4.85882
N         54.18149       32.30569       -4.95728
C         53.23546       33.40826       -5.02968
C         51.89178       32.98602       -5.58374
O         51.55319       33.45066       -6.66299
H         54.33374       31.75032       -5.81216
H         53.66544       34.15931       -5.72764
H         53.09476       33.92084       -4.05311
N         51.01694       32.17558       -4.92455
C         51.24828       31.58216       -3.61870
C         50.60108       32.44530       -2.55736
O         49.38795       32.60418       -2.55501
C         50.70259       30.14811       -3.62905
C         50.76827       29.44895       -2.27264
N         50.27183       28.08366       -2.42104
O         52.08181       29.43495       -1.78705
H         50.08973       32.03011       -5.35711
H         52.33154       31.52478       -3.40766
H         51.26314       29.55399       -4.38453
H         49.63195       30.17308       -3.93262
H         49.33978       28.09916       -2.89225
H         50.07334       27.71105       -1.47421
N         51.38751       33.08489       -1.64562
C         50.87453       34.01419       -0.65758
C         50.14414       33.37196        0.50117
O         49.65770       34.12390        1.33373
H         52.41032       32.98249       -1.71118
H         50.22291       34.75617       -1.16690
H         51.73056       34.56764       -0.21350
N         50.05928       32.01943        0.66954
C         49.41041       31.40766        1.82943
C         50.42500       30.64169        2.66217
O         51.58290       30.54766        2.27645
C         48.25144       30.48805        1.37304
C         47.14389       31.26938        0.66885
O         48.73107       29.49528        0.50323
H         50.49547       31.39111       -0.02134
H         48.98649       32.18412        2.50237
H         47.76988       30.02548        2.26779
H         48.74019       28.64626        1.01281
H         47.52742       31.76262       -0.24846
H         46.32401       30.57576        0.38292
H         46.72837       32.03932        1.35325
N         50.04035       30.06248        3.83525
C         50.92349       29.26491        4.67470
C         50.42232       27.83858        4.60374
O         49.28441       27.57445        4.96908
C         50.95970       29.82094        6.12932
C         51.77669       28.93407        7.11156
C         51.47842       31.27098        6.14788
C         53.26582       28.78858        6.78361
H         49.05781       30.15557        4.13557
H         51.96076       29.29481        4.27833
H         49.91704       29.83735        6.51804
H         51.32711       27.91886        7.14896
H         51.69252       29.36331        8.13421
H         52.50953       31.33572        5.74170
H         50.82812       31.92767        5.53369
H         51.47732       31.66701        7.18612
H         53.74279       28.13942        7.54732
H         53.40943       28.31877        5.79209
H         53.78430       29.76794        6.80606
N         51.23133       26.87117        4.09655
C         50.84017       25.48661        3.88930
C         51.62093       24.54643        4.77706
O         51.41176       23.34680        4.67108
C         51.02971       25.14853        2.40371
C         49.99063       25.86907        1.60629
O         48.81230       25.60590        1.78529
O         50.29701       26.79905        0.69525
H         52.19074       27.12547        3.82279
H         49.77343       25.31730        4.16225
H         50.87576       24.06369        2.21910
H         52.05981       25.41571        2.07845
N         52.44396       25.02021        5.75629
C         53.02007       24.16767        6.77612
C         54.48928       24.52124        7.00571
O         54.75051       25.67825        7.30083
C         52.23300       24.42253        8.07422
C         52.77867       23.59049        9.19912
C         53.47124       24.21104       10.24850
C         52.63257       22.19378        9.19309
C         54.02559       23.44336       11.27239
C         53.18188       21.42894       10.22458
C         53.88195       22.05329       11.26118
H         52.55775       26.03305        5.88475
H         52.88002       23.10690        6.50625
H         51.15215       24.19695        7.93380
H         52.31056       25.50537        8.31973
H         53.60060       25.28654       10.26034
H         52.09896       21.69970        8.38951
H         54.57173       23.92872       12.06962
H         53.07049       20.35275       10.21618
H         54.31524       21.46077       12.05480
N         55.50283       23.59439        6.97639
C         56.86328       23.89097        7.42401
C         57.66714       24.88117        6.59402
O         58.83408       25.06404        6.91569
C         57.55462       22.52277        7.42261
C         56.40173       21.59235        7.72699
C         55.32966       22.16341        6.81204
H         56.79415       24.25523        8.47495
H         57.90078       22.28003        6.39167
H         58.41950       22.45082        8.11721
H         56.61732       20.51504        7.56892
H         56.08683       21.74966        8.78546
H         55.55156       21.89797        5.75389
H         54.35228       21.75257        7.11882
N         57.14471       25.55724        5.52671
C         57.94094       26.46355        4.69876
C         58.60528       27.61169        5.45988
O         59.43177       28.28062        4.85421
C         57.10873       27.03448        3.52394
C         55.92385       27.91183        3.97828
C         55.24197       28.54560        2.79908
O         55.85445       29.31630        2.07743
O         53.94866       28.28552        2.53991
H         56.16938       25.38495        5.25505
H         58.76482       25.85313        4.26608
H         56.72219       26.19630        2.90436
H         57.78626       27.64198        2.88417
H         56.27368       28.72704        4.64642
H         55.19209       27.29304        4.53867
N         58.31672       27.90727        6.76122
C         58.99053       28.95784        7.50065
H         59.76782       29.47502        6.89869
H         58.24905       29.71066        7.83744
H         59.48777       28.51576        8.38972
H         57.59350       27.37906        7.26717
Ca        52.07270       27.94458       -0.05942
O         54.64232       26.13740        0.37945
H         55.58543       26.23122        0.66488
H         54.68700       26.08825       -0.60822
O         53.65044       31.80884        0.56844
H         54.27172       32.38007        1.08515
H         54.01542       31.82050       -0.35056

Ca 1.0



