%chk=apoCaM-CA-Ng.loop4.water5.frame789.chk
%nprocshared=20
%mem=10GB
%nosave
#b3lyp/svp scf=(tight,noincore,xqc) Test 
#IOP(5/87=12) Density=Current Pop=(MK,readradii) iop(6/33=2) iop(6/42=6)

apoCaM-CA-Ng.loop4.water5.frame789 

   -3  1 
C        -13.03544       -7.59017      -10.35652
C        -14.20960       -8.02966      -11.18269
O        -14.14874       -7.94475      -12.39995
H        -12.20858       -7.22555      -11.00346
H        -13.33591       -6.77952       -9.66214
H        -12.66096       -8.45263       -9.76438
N        -15.31510       -8.54403      -10.57282
C        -16.46853       -9.09178      -11.28345
C        -16.03199      -10.27520      -12.11223
O        -16.16633      -10.26832      -13.32881
C        -17.24135       -8.02776      -12.09397
C        -17.67261       -6.92044      -11.18558
O        -17.15598       -5.70580      -11.38954
O        -18.36771       -7.13873      -10.20595
H        -15.32472       -8.59407       -9.54229
H        -17.19003       -9.48420      -10.53166
H        -18.13875       -8.48336      -12.56512
H        -16.60039       -7.61467      -12.90250
N        -15.53868      -11.36697      -11.46685
C        -15.19734      -12.61745      -12.13476
C        -16.25950      -13.66086      -11.78931
O        -16.97980      -13.45309      -10.82165
C        -13.76404      -13.10729      -11.72571
C        -13.60719      -13.24707      -10.18131
C        -12.68988      -12.18088      -12.30654
C        -12.30677      -13.92060       -9.73699
H        -15.50466      -11.33239      -10.43727
H        -15.24594      -12.45609      -13.23032
H        -13.60481      -14.10242      -12.18376
H        -14.43742      -13.86759       -9.78460
H        -13.65108      -12.24946       -9.69394
H        -12.80089      -12.14286      -13.40915
H        -12.77747      -11.15802      -11.88316
H        -11.66873      -12.56441      -12.10487
H        -11.41455      -13.33144      -10.02861
H        -12.30063      -14.00313       -8.62849
H        -12.23702      -14.94172      -10.16621
N        -16.46074      -14.81252      -12.50070
C        -15.79545      -15.19284      -13.74266
C        -16.84833      -15.49761      -14.80349
O        -17.61661      -16.43108      -14.61163
C        -14.93740      -16.44906      -13.48949
C        -14.16616      -16.92696      -14.69540
O        -13.39979      -18.02773      -14.58777
O        -14.21949      -16.33781      -15.76443
H        -17.17299      -15.46658      -12.13888
H        -15.12250      -14.39113      -14.10141
H        -15.59493      -17.27363      -13.13786
H        -14.20696      -16.23604      -12.68285
N        -16.94099      -14.75974      -15.94795
C        -17.88321      -15.07374      -17.01750
C        -17.18969      -15.07215      -18.36086
O        -17.14019      -16.09322      -19.03166
H        -16.33277      -13.93404      -16.05638
H        -18.67375      -14.29400      -17.05327
H        -18.38445      -16.05106      -16.84477
N        -16.67593      -13.90237      -18.82716
C        -16.05386      -13.71792      -20.13420
C        -14.82452      -14.58322      -20.34343
O        -14.76696      -15.26912      -21.35592
C        -15.74230      -12.22017      -20.39499
C        -14.78909      -11.55408      -19.42646
O        -15.07387      -11.47870      -18.11292
O        -13.77850      -11.01140      -19.84114
H        -16.80167      -13.07755      -18.22672
H        -16.79642      -13.99978      -20.91638
H        -16.70091      -11.66025      -20.35931
H        -15.33958      -12.12335      -21.42905
N        -13.80047      -14.61338      -19.44503
C        -12.59143      -15.38372      -19.69211
C        -11.66009      -14.70741      -20.68439
O        -10.66402      -15.31854      -21.04241
H        -13.88791      -14.10199      -18.55472
H        -12.86738      -16.40747      -20.02910
H        -12.01729      -15.49030      -18.74651
N        -11.86174      -13.41613      -21.09684
C        -10.95665      -12.65510      -21.95612
C         -9.57084      -12.44759      -21.34624
O         -8.72148      -11.89254      -22.02748
C        -10.92330      -13.24887      -23.38831
C        -12.29939      -13.12143      -24.08436
C        -12.71015      -11.68900      -24.38764
N        -13.93246      -11.43035      -24.90469
O        -11.94503      -10.75764      -24.18069
H        -12.68659      -12.91354      -20.76102
H        -11.35039      -11.62349      -22.04348
H        -10.62083      -14.31555      -23.34573
H        -10.17592      -12.71965      -24.01899
H        -13.07121      -13.59954      -23.44388
H        -12.27255      -13.66747      -25.05145
H        -14.60007      -12.19265      -25.08749
H        -14.21610      -10.46011      -25.11065
N         -9.29574      -12.77715      -20.04801
C         -8.00803      -12.52738      -19.39819
C         -8.13792      -11.55451      -18.22516
O         -7.11667      -11.22099      -17.63518
C         -7.38834      -13.86925      -18.91471
C         -8.26575      -14.58915      -17.86939
C         -7.11536      -14.80307      -20.10092
H        -10.03292      -13.19626      -19.47195
H         -7.30058      -12.05777      -20.11606
H         -6.40883      -13.64515      -18.43682
H         -9.24406      -14.89686      -18.29337
H         -7.75453      -15.50579      -17.50890
H         -8.44965      -13.93575      -16.99046
H         -6.43826      -14.30809      -20.82868
H         -6.62707      -15.73629      -19.74902
H         -8.05763      -15.07454      -20.62023
N         -9.34658      -11.08681      -17.80535
C         -9.54478      -10.23617      -16.64232
C        -10.31665       -8.99416      -17.03628
O        -11.29606       -9.11682      -17.76334
C        -10.37690      -11.01576      -15.60693
C        -10.68850      -10.15575      -14.40700
N        -11.96032       -9.77405      -14.15226
O         -9.78345       -9.77390      -13.67979
H        -10.20392      -11.37902      -18.29538
H         -8.58263       -9.95566      -16.15534
H         -9.83359      -11.92785      -15.27525
H        -11.32484      -11.34526      -16.08680
H        -12.73582      -10.06644      -14.76586
H        -12.16836       -9.17269      -13.34467
N        -10.00677       -7.78177      -16.49508
C        -10.83783       -6.59804      -16.69819
C        -10.26145       -5.40400      -15.96671
O         -9.91745       -5.54978      -14.79989
C        -12.27356       -6.81747      -16.13517
C        -13.21058       -5.73549      -16.61568
C        -13.80621       -4.82768      -15.72500
C        -13.50271       -5.64349      -17.98794
C        -14.67472       -3.83984      -16.20644
C        -14.37058       -4.66178      -18.46457
C        -14.95966       -3.75613      -17.57923
O        -15.79740       -2.81546      -18.05946
H         -9.17930       -7.71822      -15.87917
H        -10.88810       -6.39568      -17.78975
H        -12.23139       -6.86457      -15.02310
H        -12.72363       -7.77124      -16.46803
H        -13.59765       -4.87960      -14.66386
H        -13.06205       -6.33997      -18.69088
H        -15.12695       -3.14188      -15.51348
H        -14.58602       -4.60885      -19.52462
H        -16.23262       -2.17017      -17.48521
N        -10.25343       -4.16586      -16.53717
C         -9.87183       -2.97259      -15.79349
C        -11.10771       -2.12266      -15.56546
O        -11.57842       -1.52264      -16.52290
C         -8.80511       -2.15795      -16.54728
C         -7.48350       -2.91558      -16.69711
C         -6.48950       -2.08692      -17.45962
O         -5.33707       -1.70661      -16.87647
O         -6.72012       -1.75582      -18.61226
H        -10.62043       -4.05316      -17.49547
H         -9.44112       -3.25358      -14.82260
H         -8.60641       -1.21609      -15.98765
H         -9.19822       -1.88994      -17.55417
H         -7.64321       -3.87209      -17.23849
H         -7.08065       -3.14053      -15.68538
N        -11.75382       -2.03209      -14.36439
C        -11.45207       -2.81170      -13.16250
C        -10.12242       -2.44628      -12.53653
O         -9.89770       -1.28340      -12.23074
C        -12.57759       -2.61400      -12.13298
C        -12.45590       -3.55255      -10.92385
C        -13.70376       -3.42930      -10.10940
O        -14.60115       -4.41542      -10.21119
O        -13.98548       -2.39444       -9.52762
H        -12.59420       -1.43122      -14.34246
H        -11.47149       -3.88886      -13.43949
H        -13.53558       -2.85933      -12.64829
H        -12.62444       -1.55485      -11.79707
H        -11.55425       -3.35542      -10.30662
H        -12.39229       -4.59554      -11.30989
N         -9.20518       -3.41936      -12.27671
C         -7.93239       -3.14020      -11.65347
H         -7.34164       -2.45140      -12.29241
H         -8.09260       -2.68411      -10.65357
H         -7.36270       -4.08556      -11.52375
H         -9.42188       -4.39939      -12.51196
Ca       -16.77212       -4.31030       -9.69735
O        -19.55474       -3.20628      -11.02827
H        -20.25961       -3.13201      -10.33703
H        -19.56658       -2.32913      -11.48718
O        -19.22458       -4.91181       -8.10354
H        -19.88063       -5.18700       -8.79215
H        -19.77166       -4.50511       -7.38611
O        -16.44531       -2.41232      -12.11457
H        -17.15681       -1.72602      -12.16764
H        -16.70238       -3.09057      -12.78864
O        -17.57374       -1.49747       -8.91676
H        -18.37063       -1.11746       -9.36438
H        -16.84658       -0.85508       -9.11363
O        -15.90937       -3.40418       -6.99583
H        -15.42134       -2.54587       -6.92292
H        -15.64492       -3.91285       -6.18904

Ca 1.0



