%chk=apoCaM-CA-Ng.loop2.water5.frame111.chk
%nprocshared=20
%mem=10GB
%nosave
#b3lyp/svp scf=(tight,noincore,xqc) Test 
#IOP(5/87=12) Density=Current Pop=(MK,readradii) iop(6/33=2) iop(6/42=6)

apoCaM-CA-Ng.loop2.water5.frame111 

   -2  1 
C         50.99287       46.46216       94.06727
C         51.97922       45.45719       94.59156
O         52.84275       45.83019       95.37263
H         50.41989       46.90224       94.90954
H         51.53464       47.27229       93.53596
H         50.27674       45.99690       93.35692
N         51.91259       44.15323       94.19998
C         52.85762       43.13409       94.64635
C         54.25627       43.49201       94.19166
O         55.15391       43.53944       95.01994
C         52.44912       41.74910       94.09863
C         53.33784       40.64216       94.60817
O         54.52542       40.61684       94.32537
O         52.81858       39.65985       95.36885
H         51.15856       43.87580       93.55210
H         52.82428       43.06835       95.75817
H         52.46192       41.74698       92.98734
H         51.40946       41.53915       94.43231
N         54.49943       43.78371       92.88093
C         55.80684       44.14349       92.35036
C         56.38191       45.31636       93.13111
O         55.68437       46.31636       93.23713
C         56.70520       42.90177       92.29213
H         53.70517       43.79020       92.22264
H         55.66575       44.47698       91.29774
H         56.89895       42.49659       93.30722
H         56.20734       42.11373       91.68789
H         57.66938       43.14563       91.79737
N         57.62846       45.28638       93.69826
C         58.16332       46.39415       94.47517
C         58.62527       45.92387       95.83582
O         59.75996       46.17763       96.21976
C         59.25880       47.11836       93.66684
C         58.61949       47.74708       92.46287
O         57.61014       48.62003       92.65308
O         58.95707       47.43068       91.33386
H         58.24618       44.47452       93.56355
H         57.36891       47.14152       94.69254
H         60.06315       46.40691       93.37538
H         59.70913       47.93208       94.27449
N         57.74603       45.29177       96.66585
C         58.04411       45.04414       98.06569
C         58.04588       46.34038       98.86762
O         58.36768       46.29919      100.04598
H         56.80942       45.04178       96.31764
H         59.01850       44.51488       98.14626
H         57.26001       44.39025       98.50502
N         57.66598       47.52500       98.30005
C         57.63260       48.80534       98.99221
C         56.63354       48.78807      100.12310
O         55.50616       48.35656       99.91903
C         57.21607       49.92652       98.01453
C         58.21396       50.08979       96.89582
N         57.84538       49.90076       95.60938
O         59.36687       50.40009       97.15491
H         57.36352       47.53609       97.31832
H         58.64582       49.05556       99.37759
H         57.15111       50.89480       98.55741
H         56.20686       49.69806       97.60315
H         56.88251       49.62924       95.37442
H         58.52677       50.01962       94.84627
N         56.95039       49.37003      101.31268
C         55.98361       49.55163      102.37994
C         55.51336       50.98518      102.40529
O         55.96566       51.78962      101.59948
H         57.87601       49.81238      101.42324
H         56.43535       49.25387      103.34992
H         55.08366       48.92146      102.21590
N         54.55146       51.36983      103.28905
C         54.00021       52.72417      103.29307
C         53.24373       53.05460      101.99702
O         52.90083       54.21446      101.81717
C         53.11429       52.98594      104.54373
C         51.85394       52.10851      104.62593
O         53.87691       52.86907      105.72093
H         54.21862       50.67247      103.97004
H         54.85944       53.42895      103.36497
H         52.76522       54.04066      104.49646
H         54.05309       51.90707      105.88715
H         52.10555       51.03048      104.69288
H         51.26894       52.38331      105.52902
H         51.21267       52.27041      103.74028
N         52.95377       52.10364      101.05435
C         52.30955       52.39155       99.76940
C         53.21982       51.97966       98.61743
O         54.29099       51.43812       98.85384
C         50.91690       51.69094       99.66459
C         51.01441       50.15233       99.85139
C         49.93323       52.33408      100.65431
C         49.70222       49.41772       99.57125
H         53.20848       51.12417      101.23574
H         52.14860       53.48550       99.65041
H         50.50679       51.88906       98.65170
H         51.33847       49.90665      100.88502
H         51.76812       49.74720       99.14253
H         48.90761       51.93696      100.51989
H         50.25224       52.15717      101.69778
H         49.87857       53.42962      100.47522
H         49.36580       49.61589       98.53156
H         49.86129       48.32495       99.68919
H         48.90635       49.71785      100.28173
N         52.83850       52.22124       97.32818
C         53.63158       51.85851       96.16117
C         53.95549       53.11882       95.38063
O         55.12394       53.46505       95.27670
C         52.84058       50.83615       95.31330
C         53.56773       50.41574       94.06631
O         54.74767       49.77771       94.15163
O         53.07779       50.62909       92.96871
H         51.93667       52.69038       97.15872
H         54.58809       51.38107       96.47218
H         51.85481       51.26384       95.03081
H         52.64246       49.93066       95.92615
N         52.96223       53.84540       94.79054
C         53.19323       55.07344       94.03629
C         51.94647       55.42217       93.21723
O         50.86500       55.47500       93.78456
C         53.67994       56.22094       94.96534
C         52.78519       56.52950       96.14929
C         51.54813       57.17889       95.98867
C         53.20655       56.18662       97.44863
C         50.73984       57.45029       97.09659
C         52.39716       56.46325       98.55408
C         51.16196       57.08951       98.37776
H         51.99741       53.49079       94.85831
H         54.02076       54.88173       93.32553
H         53.86188       57.14832       94.37994
H         54.67341       55.91380       95.35452
H         51.20762       57.49100       95.01234
H         54.16003       55.69870       97.60904
H         49.78699       57.94558       96.96127
H         52.72847       56.19169       99.54794
H         50.53543       57.30219       99.23416
N         52.00139       55.63599       91.86339
C         50.85082       55.93316       91.01944
C         49.68414       54.97330       91.17042
O         48.57467       55.43601       91.39472
C         51.42117       55.85112       89.59721
C         52.81404       56.38950       89.80198
C         53.22958       55.68519       91.09041
H         50.51805       56.97247       91.24335
H         51.54241       54.78745       89.28929
H         50.81269       56.37336       88.82894
H         53.51673       56.25460       88.95304
H         52.71432       57.48031       90.01149
H         53.58578       54.64631       90.91654
H         54.02152       56.30428       91.56693
N         49.85613       53.62468       91.05103
C         48.74878       52.67302       91.12995
C         47.99786       52.79933       92.44246
O         46.77464       52.79229       92.41336
C         49.21460       51.21522       90.92083
C         49.77724       50.98410       89.50567
C         50.08908       49.53354       89.27068
O         51.33998       49.15316       88.95319
O         49.20402       48.69495       89.33737
H         50.81071       53.26643       90.89852
H         48.02647       52.88947       90.30999
H         48.32335       50.55774       91.03817
H         49.96490       50.92716       91.68975
H         50.69777       51.58580       89.35397
H         49.02596       51.29813       88.74855
N         48.65768       52.97144       93.62198
C         47.97755       53.14859       94.89085
H         46.87406       53.05459       94.79952
H         48.33376       52.38423       95.61079
H         48.20405       54.15899       95.29288
H         49.68699       53.01895       93.62263
Ca        56.21710       49.31476       91.03368
O         57.50557       51.34638       89.37487
H         58.12904       50.97957       90.05163
H         57.37137       50.60335       88.73393
O         55.92039       46.84913       89.35947
H         56.19365       47.07115       88.43418
H         56.77344       46.72738       89.84686
O         54.20118       50.48559       89.27884
H         53.85082       50.93966       88.47251
H         53.98567       49.52885       89.14126
O         57.00419       51.76844       92.77938
H         56.19013       52.06859       93.25485
H         57.16446       52.46892       92.09861
O         53.28200       47.52451       91.30940
H         52.59242       48.23125       91.23632
H         52.79882       46.68450       91.10578

Ca 1.0



