%chk=apoCaM-CA-Ng.loop1.water4.frame162.chk
%nprocshared=20
%mem=10GB
%nosave
#b3lyp/svp scf=(tight,noincore,xqc) Test 
#IOP(5/87=12) Density=Current Pop=(MK,readradii) iop(6/33=2) iop(6/42=6)

apoCaM-CA-Ng.loop1.water4.frame162 

   0  1 
C         76.00246       50.01183       41.32533
C         77.17285       50.51574       40.53225
O         77.34841       50.08086       39.40286
H         75.06000       50.24191       40.78582
H         76.08892       48.91223       41.45320
H         75.95891       50.48066       42.33084
N         78.02560       51.44059       41.05959
C         79.17615       51.96054       40.32177
C         80.21423       50.88700       39.99583
O         81.11216       51.16497       39.21431
C         79.83384       53.12820       41.09794
C         80.34580       52.72885       42.46055
O         79.83496       53.30602       43.56543
O         81.23066       51.89563       42.57367
H         77.82807       51.80370       42.00503
H         78.79370       52.36786       39.35988
H         79.07358       53.92954       41.22852
H         80.67481       53.55376       40.50929
N         80.19464       49.66751       40.60428
C         81.20324       48.63578       40.38256
C         80.97551       47.91762       39.06308
O         79.82910       47.55528       38.83302
C         81.10886       47.56532       41.49586
C         81.45079       48.13439       42.88484
C         81.33892       47.09248       44.00945
C         82.31370       45.91362       43.84854
N         82.22905       45.00832       44.99327
H         79.47598       49.48788       41.31908
H         82.19487       49.10363       40.44624
H         81.83142       46.75920       41.25494
H         80.08817       47.12117       41.51219
H         80.75174       48.96084       43.13228
H         82.48134       48.55120       42.87122
H         80.29570       46.71063       44.06120
H         81.56593       47.61021       44.96686
H         83.35343       46.30071       43.76531
H         82.07518       45.33987       42.92805
H         82.89136       44.21226       44.84840
H         82.49378       45.51314       45.87012
H         81.25809       44.62963       45.08198
N         81.94995       47.54520       38.16945
C         83.40284       47.76615       38.17085
C         84.12426       47.22314       39.40760
O         84.06327       47.84474       40.45509
C         83.77337       49.22406       37.87271
C         83.14847       49.66761       36.58209
O         82.39478       50.62750       36.57644
O         83.36675       48.99008       35.43289
H         81.61368       46.99499       37.36177
H         83.78673       47.20643       37.29303
H         84.87710       49.31090       37.77590
H         83.43995       49.88770       38.69543
N         84.86164       46.07646       39.40144
C         85.03257       45.21822       38.23844
C         85.73324       43.91042       38.57446
O         86.09314       43.69386       39.72213
H         85.29096       45.80398       40.29839
H         85.60585       45.76882       37.46123
H         84.02729       44.94731       37.84864
N         85.92856       42.93295       37.64485
C         85.59238       43.03847       36.22937
C         86.80753       42.70469       35.37882
O         87.84273       42.33214       35.91844
C         84.37162       42.15210       35.89158
C         84.55970       40.68697       36.18455
O         84.49113       39.86989       35.28079
O         84.74441       40.25987       37.44835
H         86.34799       42.04912       37.97341
H         85.30039       44.07677       35.97239
H         84.12053       42.28145       34.81655
H         83.49641       42.51087       36.47554
N         86.75927       42.84210       34.02524
C         87.89440       42.56875       33.16238
C         89.05418       43.47668       33.49168
O         90.12847       42.97974       33.79796
H         85.88635       43.16544       33.58130
H         87.60080       42.74494       32.10516
H         88.19202       41.50087       33.26216
N         88.89542       44.83045       33.45330
C         89.96536       45.77824       33.74676
C         89.58304       46.60371       34.95823
O         88.55823       47.27190       34.92651
C         90.21393       46.69459       32.53170
C         90.63002       45.88500       31.29932
O         91.23082       47.61072       32.84877
H         87.96806       45.20868       33.20448
H         90.91523       45.24203       33.96570
H         89.26742       47.24168       32.30551
H         91.13137       48.37857       32.22758
H         89.83355       45.16586       31.01346
H         90.80107       46.56923       30.44207
H         91.56735       45.32482       31.50378
N         90.35911       46.58195       36.08005
C         90.00424       47.31856       37.28782
C         90.16865       48.81636       37.03158
O         91.29444       49.27598       36.93289
C         90.86240       46.84497       38.50706
C         90.78199       45.30773       38.75609
C         90.49869       47.61360       39.79100
C         89.39238       44.76915       39.10972
H         91.20201       45.99049       36.07693
H         88.94213       47.08940       37.52283
H         91.92955       47.06756       38.28114
H         91.47631       45.04355       39.58323
H         91.13942       44.75461       37.86432
H         89.43386       47.46216       40.06271
H         91.13883       47.27221       40.63280
H         90.66957       48.70218       39.66250
H         88.66575       44.96336       38.29529
H         89.45557       43.66941       39.25268
H         89.02125       45.21132       40.05604
N         89.07023       49.61804       36.91530
C         89.06203       51.07459       36.69506
C         87.61110       51.54159       36.70285
O         86.81357       50.98094       35.96359
C         89.77157       51.55895       35.38915
C         89.23136       50.95044       34.08051
O         91.16991       51.41793       35.49155
H         88.15694       49.14628       37.00842
H         89.58848       51.57115       37.53988
H         89.59430       52.65549       35.31420
H         91.47528       50.66247       34.92513
H         88.15978       51.18433       33.93458
H         89.78210       51.39168       33.22143
H         89.37699       49.85084       34.07001
N         87.18744       52.53523       37.53819
C         85.77284       52.88294       37.67933
C         85.44611       54.28157       37.18731
O         86.33897       55.06956       36.90805
C         85.31707       52.69180       39.14900
C         86.05791       53.60663       40.13878
O         85.51983       51.35403       39.52051
H         87.88599       53.03333       38.10787
H         85.15888       52.20264       37.04986
H         84.22879       52.93030       39.20006
H         84.88344       51.15903       40.25743
H         85.92691       54.67545       39.86910
H         85.65308       53.45422       41.16092
H         87.14177       53.37218       40.17279
N         84.13181       54.61991       37.02354
C         83.67277       55.93750       36.58003
C         82.19039       56.01496       36.16119
O         81.84121       57.02362       35.56299
C         83.93665       56.97660       37.69569
C         83.18413       56.59789       38.98930
C         83.48190       57.56516       40.13562
C         82.74901       57.12476       41.41214
N         83.04924       58.02271       42.52570
H         83.46211       53.87036       37.20538
H         84.24911       56.19404       35.66272
H         83.62337       57.98924       37.35789
H         85.02456       57.01847       37.91237
H         83.49605       55.57986       39.30896
H         82.08847       56.58545       38.79947
H         83.15721       58.59008       39.85267
H         84.57667       57.57316       40.32972
H         83.06298       56.09160       41.68446
H         81.65090       57.11788       41.22965
H         82.74267       58.99567       42.29585
H         82.53572       57.69623       43.37608
H         84.07573       58.01263       42.72661
N         81.25826       55.05370       36.44929
C         79.84872       55.14048       36.06536
C         78.98297       55.21934       37.30478
O         79.44084       54.90179       38.39400
C         79.47492       53.88619       35.24718
C         80.08309       53.92861       33.83499
C         80.21544       52.55002       33.26958
O         79.70722       52.21947       32.21041
O         81.02475       51.72470       33.94802
H         81.50784       54.22716       37.00063
H         79.64659       56.05779       35.47075
H         78.37661       53.75436       35.13908
H         79.85421       53.01071       35.82554
H         81.12235       54.31697       33.88194
H         79.48764       54.60598       33.18621
N         77.70929       55.68971       37.20108
C         76.80969       55.82099       38.32830
H         75.87938       55.25452       38.11817
H         77.25122       55.43458       39.27095
H         76.55458       56.89221       38.47213
H         77.36406       55.99983       36.27989
Ca        82.21133       49.85311       33.71135
O         83.67670       52.78249       34.57294
H         83.72968       53.65720       34.11354
H         82.89416       52.87026       35.17163
O         85.36119       50.75882       32.75700
H         85.81204       51.62282       32.58162
H         85.52550       50.58322       33.71682
O         80.31335       47.65108       34.30405
H         80.39133       47.78558       33.32574
H         81.20638       47.32462       34.58111
O         82.89979       52.11121       31.44636
H         82.39920       52.95843       31.33768
H         83.19362       51.87666       30.53078

Ca 1.0



