%chk=apoCaM-CA-Ng.loop4.water3.frame87.chk
%nprocshared=20
%mem=10GB
%nosave
#b3lyp/svp scf=(tight,noincore,xqc) Test 
#IOP(5/87=12) Density=Current Pop=(MK,readradii) iop(6/33=2) iop(6/42=6)

apoCaM-CA-Ng.loop4.water3.frame87 

   -3  1 
C         35.23325       71.75477       87.15095
C         34.18093       72.80483       86.96838
O         33.44125       73.04350       87.90621
H         35.89727       72.04397       87.99307
H         34.74671       70.78596       87.39103
H         35.84827       71.63054       86.23635
N         34.06857       73.49169       85.79525
C         33.08301       74.53723       85.54554
C         33.20272       75.68724       86.51850
O         32.25784       75.95742       87.23219
C         31.63908       74.00155       85.32899
C         30.99167       73.00016       86.27000
O         30.71210       73.21375       87.57688
O         30.61096       71.94513       85.78699
H         34.74129       73.28914       85.04038
H         33.31867       75.00585       84.56188
H         31.66263       73.49943       84.33456
H         30.95839       74.87241       85.20955
N         34.34148       76.44510       86.52835
C         34.58075       77.67515       87.29263
C         33.72893       78.82839       86.75166
O         34.30291       79.72628       86.14974
C         34.50237       77.45381       88.82801
C         34.82469       78.73631       89.64294
C         35.43470       76.29898       89.24566
C         36.22149       79.32803       89.42039
H         35.10979       76.14355       85.90849
H         35.63470       77.95745       87.07075
H         33.46720       77.16017       89.09865
H         34.72801       78.49718       90.72307
H         34.07456       79.52049       89.40647
H         35.12935       75.35142       88.75458
H         36.48744       76.50451       88.96141
H         35.38957       76.13965       90.34150
H         36.34655       80.22067       90.06866
H         37.01458       78.60116       89.68787
H         36.35880       79.65501       88.37035
N         32.36839       78.85556       86.85819
C         31.54398       79.82347       86.14976
C         31.65429       81.22239       86.76217
O         32.08193       82.11026       86.03823
C         30.10368       79.27747       85.97999
C         29.26324       80.14621       85.08769
O         28.11114       80.67076       85.54516
O         29.60456       80.35400       83.93366
H         31.88265       78.12363       87.37830
H         31.92463       79.86858       85.10211
H         29.59365       79.12343       86.94347
H         30.16456       78.27344       85.50320
N         31.33468       81.54242       88.05597
C         30.82057       80.59499       89.03563
C         30.58992       81.18690       90.42235
O         30.88490       82.35721       90.61885
H         31.47866       82.52396       88.33743
H         31.54676       79.76994       89.13567
H         29.85511       80.24871       88.67017
N         30.07816       80.46718       91.47584
C         29.63894       79.06856       91.47682
C         30.79929       78.15383       91.08931
O         30.76471       77.58244       90.00856
C         28.34083       78.87406       90.65560
C         27.71031       77.53522       90.93297
O         27.50487       76.74967       90.02388
O         27.34056       77.20863       92.18710
H         29.99468       80.96183       92.37849
H         29.30593       78.81833       92.50431
H         28.50175       78.97321       89.57096
H         27.60549       79.64717       90.96809
N         31.90158       77.98678       91.88273
C         31.99232       78.40878       93.27000
C         32.98138       79.50835       93.51979
O         33.63950       79.99533       92.61206
H         32.69878       77.45215       91.51288
H         32.24871       77.52481       93.89282
H         31.03183       78.79002       93.64952
N         33.04893       80.00166       94.78473
C         33.82016       81.17801       95.16184
C         35.31031       80.90406       95.22899
O         36.05447       81.86251       95.39696
C         33.32749       81.68774       96.53762
C         31.84884       82.12315       96.48063
C         31.31756       82.45557       97.84957
N         30.26910       81.76806       98.36456
O         31.83198       83.35323       98.49922
H         32.43838       79.56325       95.49207
H         33.63554       81.97764       94.40984
H         33.93549       82.55683       96.87274
H         33.45258       80.86849       97.28221
H         31.22170       81.31485       96.05301
H         31.74863       83.00723       95.81513
H         29.81880       81.00800       97.83256
H         29.90153       81.99387       99.30025
N         35.82549       79.63988       95.17137
C         37.24949       79.36140       95.31590
C         37.55823       78.71533       96.66045
O         38.73113       78.51783       96.93328
C         37.80325       78.54444       94.11564
C         37.62866       79.32538       92.80578
C         37.16852       77.15127       93.98985
H         35.18503       78.83711       95.08984
H         37.82369       80.31498       95.33652
H         38.89635       78.40321       94.27124
H         38.08917       78.76748       91.96332
H         36.55337       79.48821       92.58110
H         38.13206       80.31339       92.87790
H         37.32935       76.56319       94.91750
H         36.08127       77.22304       93.79046
H         37.63695       76.59698       93.14815
N         36.57750       78.43128       97.57821
C         36.88800       78.00764       98.94297
C         36.32104       76.64459       99.30018
O         36.66638       76.17401      100.37948
C         36.32202       79.05454       99.92757
C         36.78200       80.45743       99.61403
N         38.09247       80.78865       99.65517
O         35.95403       81.30722       99.31893
H         35.58863       78.59490       97.35228
H         37.98796       77.94287       99.08073
H         36.61449       78.80035      100.96993
H         35.21019       79.02861       99.86828
H         38.80643       80.09034       99.90597
H         38.39303       81.75039       99.43687
N         35.47509       75.93952       98.49341
C         34.90253       74.64194       98.87557
C         34.18900       73.96782       97.70421
O         33.79497       74.64034       96.75632
C         33.79817       74.79451       99.96718
C         34.13512       75.52321      101.24497
C         33.67734       76.84100      101.42241
C         34.86241       74.90635      102.27863
C         33.94675       77.53520      102.60129
C         35.11866       75.60213      103.46917
C         34.66098       76.92006      103.63145
O         34.89383       77.60323      104.77048
H         35.25480       76.32845       97.56357
H         35.73900       73.98233       99.20149
H         33.38032       73.80301      100.24625
H         32.96667       75.35244       99.48114
H         33.11677       77.33762      100.64032
H         35.21395       73.88779      102.17136
H         33.59178       78.55187      102.71424
H         35.66754       75.11716      104.26682
H         35.36819       77.21527      105.51899
N         33.90762       72.63492       97.76034
C         33.04897       71.90558       96.82503
C         33.52145       71.87904       95.37475
O         32.83691       71.25134       94.57750
C         31.59187       72.41023       96.91302
C         31.02176       72.24446       98.32983
C         29.57977       72.65299       98.38138
O         28.63823       71.75631       98.73272
O         29.25343       73.79807       98.11280
H         34.27487       72.09846       98.56385
H         33.03136       70.83964       97.14707
H         30.96171       71.80246       96.22599
H         31.52626       73.47155       96.59273
H         31.59298       72.86141       99.05171
H         31.10542       71.17809       98.63570
N         34.68403       72.45481       94.95560
C         35.18314       72.31987       93.59144
C         36.39659       71.39822       93.57002
O         36.92251       71.16199       92.49089
C         35.51619       73.71129       93.00188
C         34.32457       74.69199       92.94099
C         33.25525       74.28682       91.96013
O         32.97555       75.08522       90.91097
O         32.62592       73.25322       92.11136
H         35.29271       72.94016       95.62776
H         34.43645       71.82752       92.93548
H         35.92941       73.59921       91.97435
H         36.30614       74.17092       93.63496
H         34.71909       75.67637       92.61247
H         33.88254       74.82877       93.94947
N         36.86997       70.80181       94.70817
C         37.97436       69.86726       94.72811
H         38.77700       70.26290       95.38420
H         37.61883       68.90018       95.14398
H         38.39329       69.68136       93.71834
H         36.43205       70.98382       95.62144
Ca        31.54159       74.43495       89.29615
O         28.94989       75.82888       87.66447
H         28.24976       75.22041       88.01124
H         29.05822       75.56200       86.71808
O         29.57599       74.63719       91.80114
H         29.74408       75.58178       92.04440
H         29.86048       74.12395       92.59828
O         30.92238       71.47029       90.13281
H         30.42253       71.13133       89.34832
H         31.87395       71.31408       89.90698

Ca 1.0



