%chk=apoCaM-CA-Ng.loop2.water4.frame1197.chk
%nprocshared=20
%mem=10GB
%nosave
#b3lyp/svp scf=(tight,noincore,xqc) Test 
#IOP(5/87=12) Density=Current Pop=(MK,readradii) iop(6/33=2) iop(6/42=6)

apoCaM-CA-Ng.loop2.water4.frame1197 

   -2  1 
C         22.63505      111.37442      112.71619
C         21.29316      110.73491      112.51621
O         20.62883      111.07089      111.54627
H         23.42131      110.59083      112.68015
H         22.83795      112.10357      111.90175
H         22.67162      111.90711      113.68671
N         20.80999      109.76479      113.34065
C         21.47508      109.24681      114.53554
C         20.46624      109.14911      115.68959
O         19.39892      109.73887      115.58455
C         22.16131      107.90475      114.19885
C         21.21645      106.83648      113.75090
O         21.02765      105.74861      114.51710
O         20.64575      106.93010      112.67756
H         19.91669      109.32569      113.07107
H         22.30311      109.90939      114.86353
H         22.72158      107.54699      115.08522
H         22.92113      108.06031      113.40232
N         20.71250      108.39079      116.80647
C         19.79020      108.25253      117.93704
C         18.41537      107.67631      117.57113
O         17.56001      107.63678      118.44484
C         19.65818      109.59631      118.66529
H         21.59922      107.87580      116.88225
H         20.24189      107.55296      118.67640
H         19.04420      109.47529      119.58379
H         20.66563      109.94619      118.97883
H         19.18987      110.36988      118.02542
N         18.13276      107.18442      116.32887
C         16.82543      106.66564      115.92711
C         16.89144      105.18229      115.61563
O         17.95025      104.58481      115.75445
C         16.27441      107.49105      114.73340
C         17.23950      107.86850      113.62753
O         17.97269      106.98860      112.91342
O         17.34918      109.05135      113.34678
H         18.87611      107.15044      115.61988
H         16.08055      106.74853      116.74884
H         15.90055      108.45083      115.15404
H         15.39154      106.99435      114.28579
N         15.77019      104.51914      115.19182
C         15.77250      103.12581      114.78072
C         15.49531      103.04828      113.29748
O         16.18529      103.71527      112.54585
H         14.87893      105.02951      115.10523
H         15.02881      102.54948      115.37420
H         16.76670      102.66420      114.95543
N         14.54431      102.22142      112.78510
C         14.32210      102.07762      111.34650
C         12.86100      102.27051      111.00062
O         12.00766      101.64405      111.61435
C         14.79947      100.69473      110.87100
C         16.30201      100.56480      110.97441
N         16.86970       99.58571      111.71448
O         17.01574      101.34743      110.36289
H         14.00675      101.62048      113.42918
H         14.91029      102.82107      110.76323
H         14.54148      100.57523      109.79574
H         14.28372       99.89423      111.44357
H         16.29136       98.90887      112.23104
H         17.89590       99.49942      111.76357
N         12.50916      103.07052      109.95222
C         11.13413      103.23737      109.51023
C         10.34844      104.13696      110.43725
O         10.92666      104.66892      111.37524
H         13.24969      103.52345      109.39487
H         10.65741      102.23955      109.40344
H         11.14441      103.72676      108.51453
N          9.02032      104.39719      110.25700
C          8.16185      103.77938      109.24334
C          8.61576      104.11271      107.82897
O          8.96460      105.25477      107.56208
C          6.68900      104.22065      109.44472
C          5.73279      103.45102      108.52124
O          6.31157      103.97186      110.77535
H          8.58331      105.04930      110.92818
H          8.18460      102.67726      109.39780
H          6.62077      105.31437      109.23270
H          5.55032      104.57698      110.97720
H          5.79422      102.36091      108.73209
H          4.68882      103.78419      108.69808
H          5.97116      103.62400      107.45265
N          8.59542      103.14620      106.86302
C          9.04199      103.35617      105.47953
C          8.26798      104.48509      104.79173
O          7.25732      104.91029      105.33315
C          8.98981      102.00663      104.66758
C          7.58094      101.35785      104.51287
C          9.94292      100.98056      105.31225
C          6.63673      102.08581      103.55620
H          8.25815      102.21607      107.14569
H         10.09977      103.68621      105.54807
H          9.38184      102.16281      103.64349
H          7.08623      101.21676      105.49570
H          7.71661      100.34989      104.06219
H          9.98748      100.05763      104.69535
H         10.97074      101.39581      105.37380
H          9.61786      100.68553      106.33066
H          5.70499      101.49491      103.43316
H          6.33842      103.08397      103.91481
H          7.11968      102.17535      102.56573
N          8.66018      105.07184      103.61679
C          9.88673      104.79314      102.87586
C          9.61572      104.33311      101.43950
O         10.58646      104.10074      100.73426
C         10.77547      106.05352      102.88656
C         11.20193      106.41734      104.28267
O         10.89680      107.49930      104.75761
O         11.94097      105.55677      105.00952
H          8.06475      105.83091      103.24727
H         10.48395      103.99392      103.35189
H         10.22466      106.90201      102.43536
H         11.69811      105.87645      102.29249
N          8.35232      104.11707      100.94912
C          8.10295      103.55771       99.61746
C          7.02367      104.34475       98.86607
O          5.95800      104.52845       99.43607
C          7.59258      102.10918       99.76029
C          7.49948      101.45293       98.40194
C          6.25728      101.30476       97.76375
C          8.66624      101.02021       97.74581
C          6.18574      100.74416       96.48495
C          8.58815      100.44771       96.47271
C          7.34920      100.31433       95.84085
H          7.53922      104.26514      101.56127
H          9.04435      103.49189       99.04474
H          6.59759      102.12830      100.25612
H          8.26983      101.50289      100.40064
H          5.34958      101.64770       98.24379
H          9.63438      101.12863       98.21960
H          5.22817      100.64955       95.99014
H          9.48879      100.11477       95.97284
H          7.29109       99.88117       94.85076
N          7.15281      104.73212       97.55413
C          8.31736      104.52835       96.70849
C          9.49704      105.31329       97.22129
O         10.55787      104.73867       97.41605
C          7.85772      104.98512       95.31645
C          6.37141      104.67610       95.37723
C          6.03566      105.21144       96.76409
H          8.53931      103.44366       96.65183
H          7.94554      106.09005       95.21735
H          8.41009      104.50969       94.47691
H          5.76750      105.10950       94.55244
H          6.23402      103.56896       95.38004
H          6.05321      106.32435       96.74870
H          5.04426      104.84639       97.10859
N          9.33846      106.62871       97.54670
C         10.36923      107.42198       98.19459
C         10.66326      108.66781       97.36751
O          9.75014      109.46053       97.18995
C          9.94881      107.74984       99.64819
C          8.61187      108.49289       99.83840
C          8.33244      108.71281      101.29909
O          9.09210      109.38759      101.97637
O          7.23670      108.17403      101.86744
H          8.42129      107.06996       97.38448
H         11.27134      106.81215       98.32503
H         10.76813      108.32896      100.12794
H          9.85631      106.77953      100.17674
H          7.78267      107.89088       99.40992
H          8.62963      109.48388       99.34518
N         11.87719      108.95775       96.80587
C         13.08186      108.14728       96.83500
H         13.89208      108.71327       97.33882
H         12.98821      107.17433       97.33730
H         13.39366      107.93441       95.79138
H         11.95822      109.84767       96.28975
Ca        18.54257      104.81149      113.10983
O         19.37264      101.69237      112.65724
H         18.46038      102.06629      112.57594
H         19.28203      100.96389      113.32143
O         20.71734      104.22238      110.62216
H         21.67968      104.43378      110.52307
H         20.45713      103.83390      109.74923
O         21.67088      103.01342      113.87742
H         22.40097      103.67515      113.77932
H         21.35138      103.12613      114.80829
O         17.55998      105.47556      110.23375
H         16.73458      105.62675      110.75935
H         17.34731      104.70033      109.65610

Ca 1.0



