%chk=apoCaM-CA-Ng.loop3.water4.frame107.chk
%nprocshared=20
%mem=10GB
%nosave
#b3lyp/svp scf=(tight,noincore,xqc) Test 
#IOP(5/87=12) Density=Current Pop=(MK,readradii) iop(6/33=2) iop(6/42=6)

apoCaM-CA-Ng.loop3.water4.frame107 

   0  1 
C         37.45108       74.89786       98.58510
C         38.22713       76.15576       98.84715
O         37.62733       77.14830       99.22940
H         36.69300       75.08211       97.79711
H         38.11465       74.07393       98.24687
H         36.93900       74.57719       99.51624
N         39.57526       76.18708       98.65005
C         40.42572       77.34762       98.88939
C         40.00802       78.52137       98.01010
O         39.79658       79.61811       98.50997
C         40.46277       77.67540      100.40337
C         41.46429       78.74246      100.74777
O         41.05885       79.88090      101.34273
O         42.64954       78.57529      100.50888
H         40.04004       75.33348       98.30378
H         41.45807       77.06171       98.58589
H         40.73970       76.75728      100.96562
H         39.45892       77.99733      100.74724
N         39.85594       78.34247       96.66737
C         39.48921       79.41984       95.75287
C         37.98776       79.50376       95.52240
O         37.57563       80.36755       94.75930
C         40.23426       79.25107       94.41346
C         41.75515       79.37313       94.57797
C         42.45497       79.26873       93.21757
C         43.96611       79.49198       93.35200
N         44.62103       79.41990       92.04621
H         39.96882       77.39202       96.28113
H         39.78116       80.40448       96.18218
H         39.90646       80.05472       93.71753
H         39.97349       78.26940       93.95848
H         42.13640       78.57810       95.25558
H         41.98337       80.36500       95.02670
H         42.04300       80.04415       92.53486
H         42.26117       78.26602       92.77663
H         44.40179       78.72333       94.02806
H         44.15069       80.49623       93.79533
H         44.22684       80.14697       91.40538
H         45.64452       79.59644       92.16588
H         44.48576       78.47101       91.62787
N         37.09983       78.69083       96.16677
C         35.65538       78.81338       95.99344
C         35.21609       80.21391       96.40735
O         35.46477       80.60780       97.53816
C         34.93339       77.72724       96.81937
C         33.46681       77.60325       96.51243
O         32.88615       78.35742       95.56009
O         32.80289       76.76165       97.09579
H         37.45433       77.96947       96.80699
H         35.42886       78.63186       94.91856
H         35.08156       77.91925       97.90459
H         35.38366       76.74137       96.57410
N         34.62887       81.04572       95.50156
C         34.36682       82.45664       95.74543
C         33.29266       82.79459       96.76316
O         33.07689       83.98504       96.94368
H         34.45618       80.69422       94.54764
H         34.04899       82.91979       94.78597
H         35.31855       82.94593       96.04990
N         32.58076       81.85957       97.46293
C         31.54715       82.22808       98.43961
C         31.94358       81.88783       99.87194
O         31.20786       82.24688      100.78124
C         30.18042       81.61495       98.06939
C         30.13567       80.10913       98.19225
N         29.30229       79.51471       99.07755
O         30.84844       79.41763       97.48425
H         32.78563       80.86404       97.31255
H         31.40476       83.33077       98.43012
H         29.90886       81.91049       97.03269
H         29.41641       82.05564       98.74677
H         28.68825       80.07277       99.68786
H         29.27334       78.48841       99.15755
N         33.10754       81.24329      100.15749
C         33.59283       81.01433      101.50314
C         32.72564       80.09781      102.32933
O         32.38308       80.46432      103.44464
H         33.72718       80.94045       99.39603
H         33.73436       81.98850      102.02098
H         34.59095       80.52866      101.43120
N         32.41706       78.84844      101.88258
C         31.87740       77.80397      102.75016
C         30.53097       77.30896      102.27028
O         30.43428       76.86559      101.13379
C         32.87302       76.62661      102.74515
C         34.26597       77.08283      103.10667
C         35.27048       77.09539      102.12403
C         34.57125       77.51912      104.40632
C         36.55490       77.54111      102.43572
C         35.86491       77.95496      104.71665
C         36.86030       77.96910      103.72821
O         38.11047       78.39105      104.00465
H         32.68305       78.58810      100.91972
H         31.77766       78.16974      103.79588
H         32.88955       76.20360      101.71558
H         32.54408       75.81483      103.43013
H         35.05686       76.77651      101.11065
H         33.81136       77.51739      105.17743
H         37.31546       77.55696      101.67247
H         36.09222       78.28379      105.72239
H         38.36991       78.69342      104.88598
N         29.45308       77.31193      103.11016
C         28.15617       76.74871      102.74855
C         27.13697       77.87276      102.71909
O         26.55675       78.11452      101.66937
C         27.73409       75.62075      103.74466
C         28.86885       74.61233      104.07125
C         26.48350       74.87442      103.23610
C         29.39561       73.80251      102.88568
H         29.56179       77.70589      104.05718
H         28.21047       76.29469      101.73376
H         27.48038       76.09324      104.71886
H         28.49883       73.89794      104.83990
H         29.72172       75.16019      104.52644
H         26.16036       74.11258      103.97722
H         25.63813       75.56256      103.06628
H         26.68265       74.37058      102.26809
H         30.20452       73.12942      103.24107
H         28.59941       73.16943      102.44569
H         29.81513       74.46653      102.10577
N         26.89440       78.63055      103.83319
C         25.97693       79.76712      103.82636
C         24.53574       79.36667      103.56606
O         23.74547       80.24630      103.25468
C         26.06212       80.55665      105.14064
O         25.66491       79.74817      106.21495
H         27.41997       78.42518      104.69602
H         26.30276       80.44155      103.00260
H         25.40100       81.45035      105.07891
H         27.11386       80.89034      105.28677
H         25.79992       80.29209      107.03355
N         24.12134       78.06787      103.65615
C         22.78779       77.61641      103.29034
C         22.55698       77.94526      101.83254
O         21.63378       78.67776      101.49966
C         21.71728       78.18665      104.23277
H         24.78601       77.34868      103.96185
H         22.74266       76.50876      103.39820
H         20.72128       77.77649      103.95853
H         21.94080       77.88168      105.27711
H         21.66311       79.29232      104.18690
N         23.39607       77.41696      100.89859
C         23.26189       77.69411       99.47477
C         24.05939       76.72109       98.62784
O         24.90595       75.99782       99.13722
C         23.68286       79.13557       99.15963
H         24.11963       76.76008      101.22864
H         22.19462       77.52924       99.20563
H         23.55607       79.35565       98.07889
H         23.07531       79.86389       99.73436
H         24.75188       79.28312       99.42957
N         23.73048       76.57630       97.31300
C         24.27515       75.54377       96.44017
C         24.09127       74.17784       97.09075
O         25.03165       73.39663       97.14762
C         25.74717       75.83347       96.07053
C         25.89943       77.18480       95.35883
C         27.33419       77.45694       95.01781
O         27.94627       76.70607       94.27441
O         27.94879       78.54243       95.52502
H         22.97222       77.16267       96.92993
H         23.67960       75.55054       95.49972
H         26.11380       75.03082       95.39234
H         26.37268       75.82821       96.98869
H         25.53066       77.99861       96.01972
H         25.29963       77.18842       94.42319
N         22.89809       73.86164       97.67138
C         22.65828       72.62388       98.38497
H         21.76992       72.11761       97.95615
H         23.52276       71.92953       98.33384
H         22.46022       72.85277       99.45436
H         22.13128       74.55109       97.65618
Ca        30.75618       77.91651       94.97283
O         30.63266       76.81690       92.12630
H         30.83573       75.85344       92.23024
H         31.46622       77.20870       91.76289
O         30.17142       80.31121       93.25948
H         31.12171       80.58132       93.32764
H         29.74029       80.71846       94.05255
O         29.46651       76.27981       97.41599
H         30.07815       75.85055       98.06531
H         28.62446       76.41358       97.91885
O         30.85668       74.75253       94.91097
H         31.61361       74.32014       95.38041
H         30.04834       74.36087       95.32761

Ca 1.0



