%chk=apoCaM-CA-Ng.loop2.water4.frame109.chk
%nprocshared=20
%mem=10GB
%nosave
#b3lyp/svp scf=(tight,noincore,xqc) Test 
#IOP(5/87=12) Density=Current Pop=(MK,readradii) iop(6/33=2) iop(6/42=6)

apoCaM-CA-Ng.loop2.water4.frame109 

   -2  1 
C         42.02943       42.52936      104.41168
C         43.13378       41.55634      104.70377
O         44.27333       41.82500      104.34904
H         41.54740       42.84986      105.35902
H         42.42433       43.42921      103.89152
H         41.27151       42.04679      103.76014
N         42.86796       40.39386      105.36692
C         43.91097       39.41915      105.68404
C         44.51156       38.76019      104.44566
O         45.54781       38.12639      104.57241
C         43.38693       38.32662      106.64656
C         42.27773       37.45593      106.09771
O         41.82196       37.62599      104.97765
O         41.78126       36.46697      106.86381
H         41.90103       40.22530      105.68557
H         44.71787       39.97100      106.21704
H         43.01641       38.81495      107.57316
H         44.23498       37.66491      106.92627
N         43.88408       38.82189      103.23586
C         44.34973       38.20078      102.00101
C         45.66028       38.83367      101.47807
O         45.58835       40.22560      101.63632
C         44.38245       36.66917      102.10948
H         42.98704       39.32174      103.17219
H         43.59158       38.43744      101.22449
H         43.37435       36.29073      102.38028
H         44.67680       36.22601      101.13449
H         45.09135       36.32064      102.88775
N         46.89509       38.30182      102.06617
C         48.12433       38.83206      101.43873
C         49.27875       38.76788      102.43593
O         50.41219       38.98171      102.02385
C         48.54211       38.10491      100.11816
C         47.63731       38.16034       98.90097
O         47.33038       37.11916       98.34436
O         47.28821       39.32895       98.32123
H         46.92765       37.26024      101.98840
H         48.01874       39.90806      101.21306
H         48.76283       37.04118      100.35128
H         49.49002       38.57269       99.77100
N         49.07647       38.58410      103.78009
C         50.16756       38.62173      104.74737
C         50.92564       39.94844      104.76154
O         51.96857       40.00775      105.39611
H         48.12788       38.43100      104.14804
H         50.88071       37.81085      104.48042
H         49.78325       38.41115      105.76914
N         50.50452       41.02716      104.03671
C         51.31927       42.21456      103.79817
C         51.56393       43.05744      105.03992
O         50.62484       43.56857      105.63344
C         50.67345       43.07512      102.69260
C         50.72365       42.36035      101.35968
N         49.59474       42.03365      100.69375
O         51.80854       42.07537      100.87479
H         49.60368       40.97327      103.54347
H         52.30423       41.88096      103.40419
H         51.23069       44.02854      102.57632
H         49.62763       43.31497      102.98353
H         48.67304       42.25762      101.08350
H         49.64401       41.54396       99.78756
N         52.84753       43.26955      105.45206
C         53.23883       44.13561      106.55243
C         53.13108       45.59931      106.18670
O         53.72612       45.98878      105.19138
H         53.61017       42.78575      104.95385
H         54.32113       43.96937      106.74526
H         52.68648       43.87102      107.47761
N         52.42203       46.47675      106.95816
C         52.35928       47.91394      106.66788
C         51.01794       48.31073      106.08142
O         50.89153       49.44797      105.64295
C         52.72918       48.76943      107.91030
C         51.71000       48.68458      109.06099
O         54.01931       48.44771      108.36654
H         51.90260       46.10986      107.76848
H         53.09978       48.15867      105.87535
H         52.75057       49.83607      107.59406
H         53.97582       47.55401      108.79688
H         50.71101       49.02226      108.71935
H         51.62431       47.65255      109.45720
H         52.02664       49.35177      109.89080
N         49.98656       47.42666      105.99805
C         48.74114       47.69228      105.29122
C         48.56733       46.65702      104.19771
O         49.37497       45.73745      104.11080
C         47.52986       47.70759      106.26979
C         47.40777       46.37920      107.06596
C         47.63840       48.92871      107.19877
C         46.15342       46.29689      107.93490
H         50.09500       46.48784      106.40795
H         48.78295       48.67943      104.78183
H         46.60590       47.84361      105.66676
H         48.29087       46.23818      107.72494
H         47.36610       45.53010      106.35038
H         48.53034       48.85119      107.85158
H         47.71721       49.85861      106.59503
H         46.73626       49.03495      107.83281
H         45.24385       46.40798      107.30836
H         46.12196       45.30694      108.43722
H         46.15777       47.07221      108.72707
N         47.54298       46.74807      103.30878
C         47.31637       45.76114      102.26636
C         47.53680       46.41004      100.91606
O         48.46768       46.03064      100.22348
C         45.90672       45.16509      102.43764
C         45.65489       44.03946      101.48643
O         46.40528       42.93035      101.56527
O         44.75783       44.10641      100.66351
H         46.89963       47.55432      103.36822
H         48.04903       44.92982      102.36016
H         45.13662       45.95506      102.31154
H         45.80441       44.76110      103.46830
N         46.71472       47.40984      100.48604
C         46.92276       48.13366       99.23477
C         45.64908       48.88532       98.84567
O         45.02443       49.48374       99.70608
C         48.18168       49.03184       99.31975
C         48.18523       50.00052      100.48196
C         47.33085       51.11667      100.50833
C         49.07170       49.79656      101.55588
C         47.34816       51.99567      101.59529
C         49.08725       50.67959      102.63809
C         48.22325       51.77541      102.66101
H         45.91141       47.66211      101.07573
H         47.11640       47.38822       98.43792
H         48.34011       49.58180       98.36700
H         49.05272       48.35090       99.42724
H         46.65789       51.31843       99.68728
H         49.74760       48.94999      101.56165
H         46.68489       52.85060      101.60915
H         49.76972       50.51389      103.45950
H         48.23640       52.45658      103.50170
N         45.16432       48.84669       97.56306
C         43.88750       49.41196       97.14465
C         42.72406       48.93560       97.98882
O         41.89474       49.75178       98.36835
C         43.72690       48.88857       95.71044
C         45.15621       48.87033       95.23173
C         45.86728       48.26661       96.43767
H         43.95939       50.52274       97.15015
H         43.39151       47.82535       95.72314
H         43.01684       49.47450       95.08877
H         45.33874       48.34102       94.27340
H         45.48220       49.93142       95.12271
H         45.76720       47.15939       96.48013
H         46.93702       48.56788       96.39067
N         42.61850       47.62122       98.34123
C         41.51632       47.08278       99.13238
C         41.37638       47.84763      100.43508
O         40.30190       48.37264      100.69134
C         41.69462       45.57139       99.41289
C         41.72976       44.72976       98.12291
C         41.77190       43.26112       98.43124
O         40.75212       42.68156       99.09332
O         42.71548       42.58046       98.06249
H         43.37491       46.98609       98.04617
H         40.57042       47.20040       98.55674
H         40.82944       45.23428      100.02638
H         42.62183       45.39554       99.99843
H         42.61913       44.99504       97.51409
H         40.82026       44.92820       97.51758
N         42.43600       47.99339      101.27932
C         42.37394       48.77011      102.50255
H         41.36123       49.18589      102.69226
H         42.65709       48.13141      103.36371
H         43.08568       49.61991      102.43228
H         43.34053       47.56699      101.03070
Ca        46.35020       40.84420       99.63027
O         47.27371       43.36432       98.42992
H         48.16053       43.02267       98.15220
H         47.34567       44.34758       98.34674
O         43.77294       39.01301       98.57371
H         44.64374       38.54322       98.59530
H         43.11156       38.31299       98.80336
O         45.26503       41.33494       96.63307
H         44.34254       41.10399       96.35779
H         45.82383       40.61138       96.25328
O         42.98726       41.49943      101.12388
H         42.42795       40.74264      101.42789
H         42.38201       42.28064      101.16584

Ca 1.0



