%chk=apoCaM-CA-Ng.loop3.water5.frame304.chk
%nprocshared=20
%mem=10GB
%nosave
#b3lyp/svp scf=(tight,noincore,xqc) Test 
#IOP(5/87=12) Density=Current Pop=(MK,readradii) iop(6/33=2) iop(6/42=6)

apoCaM-CA-Ng.loop3.water5.frame304 

   0  1 
C         85.79887       28.01036       39.60055
C         87.00553       27.58441       40.38722
O         88.07777       27.47646       39.81076
H         84.89543       28.07257       40.24407
H         85.97978       29.01064       39.15465
H         85.59997       27.27993       38.79009
N         86.89717       27.32092       41.72084
C         88.00111       26.92079       42.58601
C         88.59702       25.59498       42.13554
O         89.80024       25.50180       41.93219
C         89.03480       28.06813       42.69822
C         90.11275       27.77730       43.70573
O         89.79241       27.55425       44.99442
O         91.28402       27.75232       43.36204
H         85.96961       27.40929       42.16400
H         87.57827       26.75376       43.60218
H         88.51041       28.99250       43.02166
H         89.49886       28.26397       41.70799
N         87.78684       24.51575       41.94644
C         88.29210       23.20491       41.55439
C         88.15769       22.97137       40.05811
O         88.58209       21.91968       39.59780
C         87.57776       22.10052       42.36406
C         87.80524       22.26255       43.87516
C         87.18560       21.10247       44.66536
C         87.49254       21.23998       46.16371
N         86.97931       20.09470       46.91460
H         86.76647       24.63704       42.04604
H         89.38215       23.13532       41.76640
H         87.98154       21.11236       42.05154
H         86.48607       22.11530       42.14611
H         87.36812       23.22363       44.22538
H         88.90005       22.27698       44.06697
H         87.61837       20.14632       44.29850
H         86.08425       21.07901       44.50839
H         87.03715       22.17674       46.55582
H         88.59434       21.29846       46.30924
H         87.42108       19.21228       46.56699
H         87.22057       20.21333       47.92521
H         85.94023       20.03261       46.81671
N         87.61095       23.90522       39.22524
C         87.50895       23.70909       37.78264
C         88.89304       23.65851       37.13888
O         89.85225       24.13143       37.73466
C         86.64754       24.84180       37.18867
C         86.32687       24.66103       35.73940
O         85.69652       23.54876       35.31898
O         86.59045       25.54519       34.94405
H         87.23257       24.77543       39.62410
H         86.98405       22.74105       37.61859
H         87.15473       25.82024       37.35011
H         85.67803       24.86033       37.73106
N         89.07865       23.03103       35.94177
C         90.38985       22.89151       35.32211
C         90.90491       24.15976       34.66605
O         92.03002       24.13875       34.18713
H         88.27607       22.56437       35.49454
H         90.33408       22.12782       34.51681
H         91.11175       22.51433       36.07788
N         90.12631       25.27046       34.52460
C         90.55684       26.44511       33.76785
C         91.48189       27.35279       34.56322
O         91.98015       28.30604       33.98256
C         89.32755       27.27734       33.33560
C         88.44203       26.54183       32.35545
N         88.16657       27.06766       31.13968
O         87.95868       25.46527       32.66101
H         89.15983       25.24171       34.87297
H         91.08235       26.11421       32.84312
H         89.66897       28.21612       32.85836
H         88.73755       27.55536       34.23668
H         88.55907       27.97057       30.84779
H         87.54776       26.57300       30.48288
N         91.71076       27.18122       35.89598
C         92.45847       28.14295       36.69100
C         91.77618       29.49509       36.65501
O         92.41690       30.48052       36.31978
H         91.29472       26.38138       36.39315
H         93.50802       28.21629       36.32694
H         92.48193       27.79379       37.74518
N         90.44961       29.59347       36.95566
C         89.67938       30.83172       36.89955
C         88.64904       30.73861       35.79312
O         87.89304       29.77798       35.74260
C         89.00042       31.10315       38.24826
C         89.93908       31.44045       39.39109
C         89.54014       31.12679       40.70045
C         91.15955       32.12740       39.20310
C         90.33739       31.48171       41.79273
C         91.95457       32.47575       40.29543
C         91.54432       32.15866       41.59498
O         92.29516       32.50956       42.65793
H         89.94289       28.72909       37.20234
H         90.32442       31.69409       36.64730
H         88.35907       30.23293       38.51517
H         88.32539       31.97766       38.13323
H         88.59988       30.61956       40.87776
H         91.51688       32.41653       38.22806
H         90.00935       31.24073       42.79527
H         92.88503       33.00458       40.12811
H         93.12604       32.99673       42.55999
N         88.62245       31.70292       34.82836
C         87.88421       31.58234       33.58266
C         88.88294       31.09983       32.53719
O         88.52454       30.23359       31.75592
C         87.13117       32.89149       33.17324
C         86.02812       33.31903       34.18310
C         86.44048       32.69102       31.80612
C         86.54018       33.88121       35.50801
H         89.26888       32.50043       34.91890
H         87.11287       30.78316       33.66971
H         87.85577       33.72718       33.05401
H         85.33323       32.47099       34.37195
H         85.43416       34.14451       33.72995
H         85.69981       31.86351       31.85481
H         85.91162       33.61823       31.49550
H         87.17576       32.46347       31.00931
H         87.08884       33.13131       36.10285
H         87.18976       34.76225       35.31839
H         85.67273       34.21427       36.11755
N         90.19329       31.50327       32.55768
C         91.22950       30.87386       31.74489
C         91.07718       31.13844       30.26499
O         91.84753       30.56093       29.50857
C         92.62832       31.33592       32.19642
O         92.81472       31.06017       33.56045
H         90.49679       32.21039       33.23852
H         91.17476       29.77612       31.90915
H         92.74708       32.42835       32.03645
H         93.40626       30.82125       31.58187
H         93.58190       30.43505       33.64194
N         90.12196       31.97812       29.76095
C         89.96722       32.25742       28.34161
C         89.63187       31.01564       27.52171
O         89.60350       31.13337       26.30614
C         91.22908       32.95702       27.80538
H         89.48230       32.47104       30.39792
H         89.13058       32.97873       28.20711
H         92.12355       32.30404       27.84759
H         91.07996       33.26174       26.74828
H         91.43015       33.87286       28.40141
N         89.34211       29.80504       28.09905
C         89.09595       28.60268       27.31266
C         87.67199       28.12431       27.46073
O         86.95811       28.57105       28.34703
C         90.06766       27.49982       27.74251
H         89.28353       29.71563       29.12144
H         89.25552       28.81410       26.23454
H         89.91378       27.24650       28.81439
H         89.91423       26.58020       27.13945
H         91.11522       27.84199       27.61007
N         87.18286       27.23140       26.54851
C         85.83135       26.68331       26.55155
C         84.73758       27.74427       26.40598
O         83.57299       27.37460       26.47254
C         85.59251       25.82334       27.80715
C         86.68273       24.75866       28.02107
C         86.30346       23.92155       29.20102
O         85.32122       23.19975       29.14758
O         86.97514       24.04469       30.35728
H         87.81015       26.91090       25.79573
H         85.73724       25.99599       25.68072
H         84.60651       25.31854       27.69590
H         85.54620       26.46664       28.71277
H         87.64742       25.27144       28.22680
H         86.81133       24.10814       27.12893
N         85.01635       29.06634       26.19407
C         83.99940       30.09545       26.11246
H         82.97491       29.69817       26.26823
H         84.19511       30.85991       26.89456
H         84.04575       30.58285       25.11690
H         85.98549       29.38649       26.07609
Ca        85.91995       23.39691       32.24332
O         84.75790       20.77205       32.74768
H         84.85157       20.92313       31.77321
H         83.85915       21.12485       32.96713
O         83.11109       23.98239       33.98603
H         82.27080       23.87334       33.47493
H         82.84893       23.82404       34.92741
O         82.97319       23.82779       30.91120
H         83.61407       24.47763       30.52823
H         82.67138       23.28572       30.13987
O         88.28295       21.98420       32.89261
H         88.68197       22.40104       32.08824
H         88.00330       21.08173       32.59845
O         84.70425       26.59708       32.10302
H         84.61362       27.09293       31.25065
H         85.17494       27.22473       32.70705

Ca 1.0



