%chk=apoCaM-CA-Ng.loop1.water3.frame251.chk
%nprocshared=20
%mem=10GB
%nosave
#b3lyp/svp scf=(tight,noincore,xqc) Test 
#IOP(5/87=12) Density=Current Pop=(MK,readradii) iop(6/33=2) iop(6/42=6)

apoCaM-CA-Ng.loop1.water3.frame251 

   0  1 
C         51.18986       30.06621      -12.05092
C         50.88244       28.75294      -11.38729
O         51.22788       28.57427      -10.22862
H         52.28778       30.22715      -12.06861
H         50.82009       30.08903      -13.09905
H         50.70483       30.89322      -11.49269
N         50.22402       27.78019      -12.07380
C         49.87906       26.47249      -11.51944
C         51.08951       25.53317      -11.42230
O         50.87027       24.35241      -11.21339
C         48.80511       25.79384      -12.41372
C         47.51075       26.56453      -12.48524
O         47.47061       27.67619      -12.98705
O         46.37499       26.01046      -12.01822
H         49.92382       27.99658      -13.03660
H         49.40655       26.58779      -10.52003
H         48.55916       24.80245      -11.97991
H         49.19825       25.63271      -13.43990
N         52.38031       25.94284      -11.60169
C         53.49579       25.01093      -11.76291
C         54.54075       25.18617      -10.66241
O         54.92541       26.32475      -10.43518
C         54.14578       25.29101      -13.13754
C         53.13823       25.34800      -14.30478
C         52.41840       24.02436      -14.58908
C         51.38442       24.22591      -15.70799
N         50.75970       22.96158      -16.08556
H         52.59606       26.93936      -11.72491
H         53.13178       23.97584      -11.77750
H         54.93617       24.53876      -13.34703
H         54.63080       26.29136      -13.09846
H         53.68925       25.64781      -15.22200
H         52.38682       26.14171      -14.10030
H         51.88334       23.65977      -13.68682
H         53.16998       23.26385      -14.89070
H         51.86922       24.66764      -16.60581
H         50.60192       24.93391      -15.35193
H         50.35697       22.49773      -15.24524
H         49.99476       23.14693      -16.77418
H         51.46965       22.33088      -16.52242
N         55.12566       24.15751       -9.96041
C         54.88974       22.71958      -10.11194
C         55.16087       22.27204      -11.54082
O         54.23482       21.89506      -12.24461
C         53.53765       22.28691       -9.50309
C         53.53563       22.48569       -8.00383
O         54.60739       23.03521       -7.39122
O         52.58321       22.11226       -7.34060
H         55.85529       24.41961       -9.27864
H         55.62160       22.16013       -9.49001
H         53.41481       21.19894       -9.66966
H         52.67925       22.80975       -9.96280
N         56.42819       22.25476      -12.05101
C         57.60563       22.47651      -11.21792
C         58.92165       22.33037      -11.96096
O         58.92056       22.30234      -13.18316
H         56.54536       21.97883      -13.03760
H         57.58299       21.68106      -10.44466
H         57.58039       23.47366      -10.73148
N         60.11076       22.16489      -11.30377
C         60.23769       22.04130       -9.85061
C         60.26413       20.57591       -9.45628
O         60.28890       19.71397      -10.32607
C         61.46248       22.81272       -9.30308
C         62.79368       22.26918       -9.76140
O         63.11467       22.30710      -10.93774
O         63.65725       21.76497       -8.85895
H         60.93750       21.97137      -11.88601
H         59.34744       22.48197       -9.35747
H         61.43974       22.75812       -8.19294
H         61.38762       23.88529       -9.58037
N         60.20799       20.21756       -8.14169
C         60.16648       18.83402       -7.70266
C         58.89584       18.10333       -8.09497
O         58.82083       16.91969       -7.79721
H         60.19830       20.95010       -7.41707
H         60.23512       18.79855       -6.59428
H         61.04778       18.29783       -8.11857
N         57.86382       18.71144       -8.75849
C         56.66725       17.99575       -9.18454
C         56.63037       17.94069      -10.69771
O         57.36586       18.66536      -11.35523
C         55.39372       18.68330       -8.63047
C         55.42116       18.79098       -7.10578
O         54.25186       17.96117       -9.01160
H         57.91774       19.70870       -9.00225
H         56.70336       16.94531       -8.82182
H         55.35068       19.71150       -9.06033
H         53.48173       18.58619       -8.96178
H         56.29532       19.38825       -6.77536
H         54.50025       19.30264       -6.75224
H         55.47046       17.78077       -6.64777
N         55.81743       17.04076      -11.31312
C         55.72094       16.89876      -12.76113
C         54.29368       17.17378      -13.24541
O         54.09038       17.21603      -14.45113
C         56.32482       15.52358      -13.19786
C         55.55292       14.31146      -12.60593
C         57.81916       15.49063      -12.80341
C         56.15977       12.94843      -12.95594
H         55.26869       16.40306      -10.71976
H         56.33828       17.68050      -13.25727
H         56.28095       15.45828      -14.30791
H         54.51568       14.33547      -12.99573
H         55.51494       14.36449      -11.49934
H         58.35113       16.36556      -13.23412
H         57.94276       15.50872      -11.69922
H         58.32673       14.58888      -13.20064
H         57.15953       12.82636      -12.48791
H         55.51518       12.14146      -12.54783
H         56.24613       12.82151      -14.05458
N         53.26838       17.41647      -12.36848
C         51.91350       17.81452      -12.74374
C         51.55733       19.13132      -12.02976
O         52.35921       19.63288      -11.25610
C         50.93855       16.66373      -12.36989
C         51.26069       15.38711      -13.15223
O         49.60776       17.00638      -12.65927
H         53.43021       17.32831      -11.35898
H         51.84612       17.99260      -13.84049
H         51.05287       16.43190      -11.28299
H         49.15805       17.20954      -11.79733
H         50.55521       14.57973      -12.86339
H         51.15997       15.56949      -14.24459
H         52.28926       15.03719      -12.94006
N         50.37292       19.76185      -12.27127
C         49.96381       21.04042      -11.67037
C         49.80943       21.00284      -10.13999
O         49.94287       19.94984       -9.53349
C         48.61022       21.50120      -12.30228
C         47.43874       20.55174      -11.99825
O         48.75607       21.61559      -13.69123
H         49.75650       19.33998      -12.97764
H         50.74039       21.79679      -11.91834
H         48.34736       22.49711      -11.88958
H         48.08404       22.27747      -14.00366
H         47.60664       19.54341      -12.42813
H         47.28060       20.45150      -10.90522
H         46.50720       20.96038      -12.44338
N         49.43056       22.14578       -9.48113
C         49.00130       22.21925       -8.08461
C         49.66422       23.34893       -7.28026
O         49.30356       23.51233       -6.12198
C         47.46415       22.44223       -8.07706
C         47.03868       23.79925       -8.69433
C         45.52870       24.05887       -8.65523
C         44.72926       23.10243       -9.55248
N         43.31272       23.46610       -9.55809
H         49.31787       22.99888      -10.03480
H         49.20187       21.25303       -7.57171
H         47.09594       22.39845       -7.02863
H         46.99321       21.60523       -8.63360
H         47.36629       23.88324       -9.75005
H         47.52143       24.61766       -8.11954
H         45.36410       25.09463       -9.02624
H         45.16277       24.00378       -7.60711
H         44.83398       22.05715       -9.19228
H         45.12128       23.15798      -10.59305
H         43.19326       24.43790       -9.92710
H         42.79061       22.80507      -10.17713
H         42.92234       23.40722       -8.58961
N         50.59615       24.19045       -7.81496
C         51.12756       25.35471       -7.10367
C         50.04093       26.40041       -6.92367
O         49.43948       26.80861       -7.90795
C         52.30244       25.97553       -7.89618
C         52.90896       27.23806       -7.25100
C         53.43639       26.99534       -5.86570
O         52.93871       27.68867       -4.82360
O         54.32867       26.18531       -5.67935
H         50.93862       24.00934       -8.76500
H         51.53439       25.03479       -6.12026
H         51.95476       26.25334       -8.91052
H         53.10069       25.21444       -8.00627
H         52.14343       28.04259       -7.21503
H         53.74376       27.59827       -7.88930
N         49.78061       26.92941       -5.69734
C         48.81275       27.99017       -5.51256
H         47.80002       27.63932       -5.80097
H         48.79649       28.31023       -4.44913
H         49.09058       28.86869       -6.13584
H         50.31117       26.60242       -4.87616
Ca        54.88530       23.37125       -5.18168
O         54.58551       24.25820       -2.32016
H         54.76013       24.96909       -1.65388
H         53.62476       24.04477       -2.21169
O         55.96363       20.82314       -4.34067
H         55.43185       19.99224       -4.25969
H         56.87820       20.51760       -4.56455
O         52.14617       23.01774       -4.48351
H         52.53038       22.11566       -4.62246
H         51.38646       22.87296       -3.86774

Ca 1.0



