%chk=apoCaM-CA-Ng.loop4.water5.frame633.chk
%nprocshared=20
%mem=10GB
%nosave
#b3lyp/svp scf=(tight,noincore,xqc) Test 
#IOP(5/87=12) Density=Current Pop=(MK,readradii) iop(6/33=2) iop(6/42=6)

apoCaM-CA-Ng.loop4.water5.frame633 

   -3  1 
C         -2.46524       46.70287       14.43626
C         -2.11857       48.06352       14.96760
O         -1.54707       48.85274       14.23331
H         -3.13985       46.81100       13.56049
H         -1.54310       46.17435       14.11835
H         -2.98268       46.08781       15.20221
N         -2.45042       48.41768       16.24062
C         -2.20651       49.73719       16.81452
C         -2.96528       50.79203       16.03037
O         -2.36343       51.76427       15.58907
C         -0.68800       50.05759       16.90116
C          0.08672       49.09130       17.75193
O          1.29078       49.24209       17.88412
O         -0.52580       48.06951       18.38039
H         -2.93212       47.72714       16.83613
H         -2.61798       49.74911       17.84772
H         -0.55305       51.07076       17.33850
H         -0.23647       50.06950       15.88662
N         -4.30498       50.65213       15.79077
C         -5.03144       51.65745       15.01729
C         -5.16725       52.92989       15.86140
O         -5.12638       52.81009       17.07877
C         -6.38665       51.15070       14.41268
C         -7.61491       51.19826       15.35357
C         -6.22744       49.77350       13.73517
C         -7.54683       50.31538       16.59311
H         -4.77987       49.80114       16.12182
H         -4.38342       51.84907       14.13243
H         -6.65692       51.85463       13.59866
H         -8.51446       50.90521       14.76716
H         -7.77388       52.24910       15.67927
H         -6.01277       48.96908       14.46747
H         -7.15981       49.49724       13.19904
H         -5.39761       49.79831       12.99683
H         -6.70316       50.61587       17.24426
H         -8.48851       50.44342       17.16890
H         -7.45285       49.24699       16.31389
N         -5.25295       54.19149       15.35105
C         -5.24451       54.52568       13.93531
C         -3.89055       55.04097       13.48431
O         -3.68175       55.10747       12.28516
C         -6.38929       55.51080       13.60580
C         -6.28160       56.87003       14.26773
O         -7.16021       57.69523       14.07899
O         -5.23617       57.20073       15.05181
H         -5.26167       54.96474       16.03292
H         -5.41380       53.61472       13.33870
H         -7.34884       55.04512       13.92029
H         -6.42716       55.67118       12.50713
N         -2.91553       55.39945       14.36962
C         -1.58599       55.83598       13.98010
C         -1.60109       57.06133       13.09477
O         -2.18994       58.06646       13.46658
H         -3.10223       55.35903       15.38092
H         -1.05680       54.99757       13.47854
H         -1.01707       56.09018       14.89998
N         -0.93089       57.04478       11.90712
C         -0.81672       58.20162       11.02338
C         -1.95883       58.29280       10.01817
O         -1.97098       59.24684        9.25373
C          0.59811       58.25201       10.37777
C          1.05134       56.99991        9.66554
O          0.48812       56.60398        8.66361
O          2.12513       56.32592       10.12042
H         -0.43028       56.18182       11.64717
H         -0.88606       59.13403       11.62727
H          1.32582       58.43006       11.19756
H          0.66748       59.11422        9.67888
N         -2.97658       57.38037        9.97498
C         -4.07931       57.45730        9.02435
C         -3.64505       57.19298        7.59238
O         -4.47001       57.31473        6.69929
H         -2.99067       56.60880       10.64469
H         -4.55382       58.46007        9.10737
H         -4.84781       56.69666        9.28395
N         -2.36539       56.81743        7.30546
C         -1.81158       56.59582        5.97812
C         -2.36351       55.35751        5.29827
O         -2.15097       55.20673        4.10268
C         -1.85807       57.87786        5.11589
C         -1.10907       59.02633        5.82122
C         -0.95553       60.26999        4.98501
N         -0.29400       61.33537        5.49393
O         -1.40911       60.32419        3.85117
H         -1.71562       56.68148        8.07681
H         -0.72970       56.36316        6.09655
H         -2.90279       58.18187        4.89237
H         -1.34296       57.66592        4.15356
H         -0.08755       58.68008        6.09115
H         -1.64826       59.29888        6.75028
H          0.09817       61.30283        6.44717
H         -0.16702       62.19193        4.93533
N         -2.96234       54.36282        6.01843
C         -3.38420       53.09511        5.42971
C         -2.68556       51.89045        6.06283
O         -2.95496       50.78907        5.60396
C         -4.93012       52.93423        5.54283
C         -5.42888       52.89577        7.00034
C         -5.65421       54.04676        4.77455
H         -3.10762       54.49416        7.02924
H         -3.12547       53.06639        4.34845
H         -5.21334       51.96942        5.06552
H         -6.52615       52.72559        7.02233
H         -4.95178       52.06455        7.55731
H         -5.22093       53.84867        7.52974
H         -5.43175       55.04262        5.21241
H         -5.33822       54.04256        3.70993
H         -6.75236       53.88226        4.81004
N         -1.84975       51.99162        7.14652
C         -1.40405       50.81276        7.89190
C          0.10809       50.81660        8.13901
O          0.76113       51.80656        7.84212
C         -2.27505       50.79212        9.16704
C         -2.22387       49.54277        9.99230
N         -2.08130       49.61632       11.33277
O         -2.39452       48.45601        9.46059
H         -1.64480       52.91320        7.55626
H         -1.63197       49.89361        7.31080
H         -3.33074       50.85688        8.82638
H         -2.07505       51.69490        9.78631
H         -1.99391       50.52536       11.81246
H         -2.11096       48.75454       11.89192
N          0.74062       49.69749        8.61531
C          2.19312       49.61292        8.82058
C          2.62938       48.18706        9.13681
O          1.94877       47.50784        9.89315
C          2.65368       50.51329        9.99412
C          4.16217       50.47280       10.17140
C          4.73722       49.90397       11.32318
C          5.00755       50.99048        9.17407
C          6.12867       49.85073       11.46872
C          6.39730       50.94035        9.32432
C          6.96325       50.37012       10.46859
O          8.30562       50.32556       10.59374
H          0.16796       48.85767        8.78070
H          2.70010       49.93106        7.88310
H          2.14901       50.15476       10.91910
H          2.35055       51.56815        9.83642
H          4.11251       49.48858       12.10361
H          4.59066       51.43309        8.27869
H          6.55744       49.40179       12.35634
H          7.03586       51.34347        8.54802
H          8.74006       49.93840       11.36724
N          3.84545       47.73305        8.70308
C          4.40283       46.44670        9.10160
C          5.65421       46.68397        9.93713
O          6.62686       47.16367        9.36972
C          4.79618       45.60864        7.86355
C          3.61880       45.28653        6.94087
C          4.09856       44.51398        5.74237
O          3.95416       44.97014        4.61922
O          4.69851       43.31809        5.90118
H          4.43036       48.35039        8.11944
H          3.65667       45.88013        9.67413
H          5.25592       44.65423        8.20715
H          5.55812       46.16712        7.27287
H          3.14415       46.23238        6.60054
H          2.86442       44.68278        7.48797
N          5.76796       46.40554       11.27223
C          4.70713       45.97453       12.18351
C          4.09587       44.64496       11.79065
O          4.81639       43.67032       11.62695
C          5.27417       45.88694       13.62151
C          4.20459       45.53739       14.66881
C          4.78790       45.53898       16.05232
O          4.31510       46.39096       16.98129
O          5.68724       44.76666       16.34432
H          6.69507       46.58890       11.69056
H          3.91971       46.76069       12.19333
H          5.70483       46.87894       13.88593
H          6.09078       45.13128       13.65697
H          3.77543       44.53260       14.46704
H          3.38810       46.28829       14.61797
N          2.74079       44.54519       11.66238
C          2.04840       43.32668       11.30393
H          1.44039       43.50989       10.39324
H          2.74557       42.48791       11.10238
H          1.36943       43.03510       12.13316
H          2.15613       45.37543       11.84422
Ca         1.73630       46.25696       18.67475
O          3.68887       44.84828       20.52591
H          2.88277       44.28412       20.41383
H          3.47637       45.43184       21.29706
O          2.12020       43.60397       17.57044
H          2.23856       43.49329       16.59399
H          2.09408       42.68186       17.92894
O          1.08838       47.45880       21.34055
H          0.75872       48.38545       21.22678
H          0.69370       47.15466       22.19581
O          3.96209       48.15048       19.65814
H          3.84823       47.96846       20.62460
H          3.92460       49.13699       19.58497
O          0.73601       46.32248       15.81026
H          1.04624       47.01238       15.17156
H          0.78818       45.47240       15.30547

Ca 1.0



