%chk=apoCaM-CA-Ng.loop3.water5.frame399.chk
%nprocshared=20
%mem=10GB
%nosave
#b3lyp/svp scf=(tight,noincore,xqc) Test 
#IOP(5/87=12) Density=Current Pop=(MK,readradii) iop(6/33=2) iop(6/42=6)

apoCaM-CA-Ng.loop3.water5.frame399 

   0  1 
C         14.02929      107.57575       24.06209
C         14.95975      108.75487       24.04632
O         14.61092      109.78215       24.60790
H         13.07027      107.85302       23.57643
H         14.46054      106.70710       23.52179
H         13.82944      107.27384       25.11193
N         16.17774      108.67090       23.43673
C         17.13195      109.77681       23.40308
C         18.45937      109.28551       22.84630
O         18.51380      108.88652       21.69223
C         16.58661      110.94663       22.55286
C         17.55592      112.09359       22.48714
O         17.94124      112.72044       23.61479
O         17.99579      112.46328       21.41005
H         16.44677      107.76909       23.01343
H         17.29467      110.12346       24.44741
H         15.63904      111.32966       22.98263
H         16.36911      110.58098       21.52445
N         19.56140      109.24527       23.65197
C         20.84402      108.70101       23.22915
C         21.06894      107.40561       23.96743
O         20.88387      107.35405       25.17432
C         22.01638      109.64751       23.55525
C         23.32186      109.10659       22.92298
C         24.57657      109.78292       23.47106
C         25.82434      109.25103       22.74586
N         27.04840      109.75235       23.36662
H         19.46868      109.53996       24.63501
H         20.85100      108.52025       22.13089
H         22.11476      109.71857       24.66127
H         21.82864      110.66647       23.15485
H         23.25433      109.22346       21.81825
H         23.45247      108.02773       23.14476
H         24.64819      109.54014       24.55484
H         24.51627      110.88472       23.34961
H         25.78607      109.56804       21.67934
H         25.84330      108.13762       22.77489
H         27.04308      110.79716       23.39369
H         27.12960      109.37214       24.33809
H         27.87174      109.42669       22.81019
N         21.55122      106.33314       23.29387
C         21.80801      105.05618       23.91987
C         23.30446      104.77381       23.93976
O         23.97854      105.00141       22.94703
C         21.02762      104.00838       23.13779
C         21.19543      102.67397       23.75519
O         22.29004      102.14976       23.79091
O         20.13758      101.98537       24.17230
H         21.76510      106.42720       22.28905
H         21.42909      105.02941       24.96623
H         21.37091      103.96577       22.08074
H         19.94682      104.27368       23.14391
N         23.87117      104.21763       25.05274
C         25.28507      103.89968       25.18041
C         25.77248      102.96927       24.09397
O         26.69228      103.34329       23.37950
H         23.26598      103.99105       25.85600
H         25.45769      103.41442       26.16616
H         25.87166      104.84286       25.15545
N         25.19107      101.75129       23.89492
C         25.60314      100.83180       22.83485
C         24.56515      100.77473       21.71960
O         24.25879       99.70183       21.21675
C         25.96752       99.45447       23.44214
C         24.83103       98.74545       24.15422
N         25.07492       97.60076       24.82903
O         23.69484       99.19531       24.13690
H         24.41362      101.48564       24.50915
H         26.51734      101.22566       22.34148
H         26.77630       99.62492       24.18477
H         26.36464       98.78091       22.65200
H         26.02195       97.19812       24.86600
H         24.31345       97.12640       25.33178
N         24.02534      101.93801       21.25065
C         23.13823      102.05903       20.10268
C         21.80662      101.32776       20.16738
O         21.07891      101.43478       19.18993
H         24.31025      102.81968       21.69709
H         23.68284      101.69549       19.20450
H         22.91964      103.13881       19.94614
N         21.42611      100.52727       21.20745
C         20.24295       99.67732       21.13503
C         20.38181       98.52058       22.17521
O         19.58353       98.67618       23.31687
C         18.92901      100.48574       21.26646
C         17.73148       99.57384       21.16793
C         17.44381       98.90266       19.96878
C         16.91237       99.36021       22.28934
C         16.36430       98.01786       19.89905
C         15.84292       98.46618       22.22142
C         15.56771       97.78787       21.02601
O         14.54729       96.91074       20.95143
H         22.05244      100.40730       22.01052
H         20.26896       99.20781       20.12711
H         18.85408      101.27495       20.48832
H         18.93609      100.99803       22.24810
H         18.05890       99.05968       19.09144
H         17.11793       99.86450       23.22551
H         16.15486       97.50155       18.97111
H         15.23654       98.29496       23.10168
H         13.98957       96.70714       21.71579
N         20.09847       97.21722       21.59360
C         20.56639       96.14867       22.48801
C         22.09088       96.09893       22.54796
O         22.62793       96.18556       23.64209
C         19.90866       94.81489       22.06796
C         18.36104       94.95301       21.95365
C         20.27682       93.68676       23.04553
C         17.64733       95.43583       23.22589
H         20.53307       97.11083       20.64976
H         20.20894       96.34204       23.52438
H         20.28617       94.53061       21.06082
H         17.93585       93.97072       21.65799
H         18.11497       95.67131       21.14160
H         19.80724       92.73398       22.72556
H         21.36760       93.53009       23.06178
H         19.95629       93.92341       24.08100
H         17.82480       94.74961       24.07758
H         17.97017       96.45941       23.50708
H         16.55437       95.48006       23.03954
N         22.85490       95.98437       21.42233
C         24.31495       95.91708       21.47217
C         24.78754       94.63995       22.14837
O         25.88198       94.62288       22.69335
C         24.91686       95.99423       20.06106
O         24.47450       94.91283       19.28583
H         22.38953       95.95502       20.50402
H         24.69005       96.80005       22.03532
H         26.02784       95.97471       20.13436
H         24.59906       96.95134       19.58910
H         24.86906       95.03933       18.38469
N         24.00897       93.52068       22.11717
C         24.35815       92.22681       22.68435
C         24.67358       92.31312       24.17300
O         25.67638       91.76955       24.61487
C         25.48228       91.57805       21.86585
H         23.09824       93.57000       21.63937
H         23.46245       91.57467       22.57547
H         25.68043       90.54874       22.23144
H         25.17774       91.51496       20.79849
H         26.41724       92.17258       21.93100
N         23.84836       93.00682       25.00439
C         24.04185       93.12376       26.44551
C         22.74739       92.77978       27.15028
O         21.70954       93.28520       26.74594
C         24.45040       94.54933       26.79645
H         23.05603       93.51650       24.58849
H         24.86576       92.46772       26.80437
H         25.40275       94.80244       26.28237
H         23.66442       95.26640       26.49410
H         24.61607       94.63206       27.89309
N         22.73453       91.93930       28.22654
C         21.52092       91.52725       28.93249
C         20.65652       90.59707       28.08708
O         19.58188       90.22986       28.54384
C         20.70124       92.73243       29.47059
C         21.52328       93.63892       30.39732
C         20.66343       94.72759       30.97707
O         20.92762       95.90050       30.76629
O         19.60246       94.41297       31.74590
H         23.63238       91.57285       28.57681
H         21.82200       90.92929       29.82142
H         19.84023       92.33140       30.04992
H         20.27765       93.34060       28.64497
H         22.36436       94.09032       29.82686
H         21.94207       93.04142       31.23473
N         21.07128       90.11996       26.87681
C         20.26690       89.20749       26.09532
H         19.31186       89.69496       25.80870
H         20.81367       88.91880       25.17215
H         20.05741       88.28787       26.68262
H         21.99264       90.37341       26.49533
Ca        20.78925       99.94109       24.66348
O         21.63488       97.32029       26.28040
H         20.82564       96.78883       26.07403
H         21.99909       96.90798       27.10344
O         20.57559      102.23903       27.17689
H         19.96850      102.28672       27.95748
H         21.30958      102.86687       27.39379
O         23.47669      100.91184       26.96973
H         23.67471      101.75249       27.45382
H         24.36414      100.50049       26.81630
O         20.72515       99.40119       28.38880
H         19.83050       99.61287       28.75613
H         20.95154       98.52142       28.78194
O         18.38701       99.04636       26.09787
H         17.66214       98.74047       25.49722
H         18.06040       98.84250       27.00930

Ca 1.0



