%chk=apoCaM-CA-Ng.loop3.water3.frame231.chk
%nprocshared=20
%mem=10GB
%nosave
#b3lyp/svp scf=(tight,noincore,xqc) Test 
#IOP(5/87=12) Density=Current Pop=(MK,readradii) iop(6/33=2) iop(6/42=6)

apoCaM-CA-Ng.loop3.water3.frame231 

   0  1 
C         44.67047       52.36409       86.77475
C         45.14805       53.72669       86.37433
O         44.31880       54.58263       86.10604
H         43.55912       52.32165       86.76837
H         45.05785       51.60597       86.06300
H         45.02871       52.13125       87.79870
N         46.48759       53.99648       86.30445
C         47.04882       55.29910       85.93333
C         46.69882       55.69667       84.49937
O         46.93699       56.83567       84.12112
C         46.61951       56.38685       86.94912
C         47.02391       56.07780       88.37091
O         46.71654       56.95241       89.34645
O         47.62868       55.05508       88.65573
H         47.15003       53.24000       86.53437
H         48.15937       55.24381       85.98009
H         45.52177       56.53795       86.91908
H         47.09822       57.35008       86.67029
N         46.17172       54.78960       83.62836
C         45.78891       55.09332       82.25047
C         44.55300       55.99063       82.15254
O         44.14710       56.29034       81.03828
C         45.60722       53.76116       81.47594
C         44.44022       52.86997       81.95685
C         44.61982       51.43657       81.42562
C         43.47043       50.48075       81.79028
N         43.25655       50.36947       83.23541
H         46.10296       53.81421       83.94112
H         46.64140       55.61285       81.75909
H         46.56404       53.20731       81.60574
H         45.48477       53.94994       80.38647
H         43.47591       53.30949       81.62202
H         44.42478       52.80937       83.06083
H         45.56714       51.02332       81.84079
H         44.71054       51.45698       80.31814
H         43.72722       49.47530       81.38619
H         42.53152       50.81767       81.30090
H         44.14445       50.10507       83.72055
H         42.88885       51.26808       83.62150
H         42.54037       49.62883       83.41418
N         43.90311       56.45379       83.26349
C         42.68908       57.25520       83.23417
C         42.94469       58.59671       83.90915
O         43.37312       58.61536       85.05597
C         41.58773       56.46265       83.96839
C         40.22038       57.07902       83.89109
O         39.19122       56.46666       84.50663
O         40.02167       58.10456       83.25920
H         44.25047       56.21168       84.19734
H         42.35334       57.41978       82.18665
H         41.87139       56.33866       85.03713
H         41.51154       55.45214       83.51226
N         42.69624       59.76746       83.25095
C         42.95146       61.08408       83.82123
C         42.09493       61.45140       85.02170
O         42.31761       62.52942       85.55558
H         42.34765       59.73112       82.28161
H         42.77253       61.85738       83.04342
H         44.02297       61.14049       84.11476
N         41.13152       60.62705       85.53117
C         40.41008       60.94516       86.76261
C         39.88296       59.69003       87.45078
O         39.89540       58.61125       86.87350
C         39.33807       62.04136       86.53875
C         38.16665       61.59744       85.65333
N         37.22057       62.68650       85.43018
O         38.59047       61.07111       84.43443
H         40.97067       59.71835       85.08541
H         41.16710       61.33937       87.47749
H         39.81741       62.93575       86.08737
H         38.91570       62.34927       87.51947
H         37.69021       63.44963       84.89002
H         36.43019       62.32325       84.84894
N         39.52360       59.75118       88.76083
C         39.23132       58.57211       89.55554
C         37.94048       57.89720       89.17036
O         36.89957       58.53270       89.24475
H         39.56751       60.65881       89.24884
H         39.13251       58.87811       90.61924
H         40.09126       57.86812       89.49731
N         37.91979       56.57072       88.85352
C         36.66742       55.83475       88.68594
C         35.97618       56.16291       87.37512
O         36.59082       56.76636       86.50614
C         36.92357       54.30630       88.69532
C         37.73579       53.83254       89.87843
C         38.95601       53.16583       89.66319
C         37.29413       54.04233       91.19477
C         39.72007       52.71893       90.74303
C         38.06443       53.59812       92.27549
C         39.28014       52.93376       92.05178
O         40.03180       52.49787       93.08261
H         38.81302       56.05425       88.85374
H         36.00779       56.09034       89.54416
H         37.46041       54.03409       87.75834
H         35.95223       53.76621       88.69236
H         39.31858       52.98768       88.65804
H         36.35859       54.55176       91.38556
H         40.65586       52.20506       90.56045
H         37.71570       53.77002       93.28565
H         39.76610       52.62555       94.00418
N         34.71057       55.69973       87.14239
C         34.08460       55.70359       85.82369
C         32.93094       56.68551       85.67491
O         32.78869       57.20347       84.57534
C         33.78232       54.24088       85.33497
C         32.98014       53.31657       86.30511
C         35.12030       53.52835       85.05585
C         31.51807       53.66582       86.53532
H         34.20339       55.25401       87.91977
H         34.81538       56.10529       85.08696
H         33.24995       54.29531       84.35890
H         33.49604       53.23831       87.28462
H         32.96107       52.29278       85.87033
H         34.94068       52.51687       84.63176
H         35.72220       54.09188       84.31480
H         35.71393       53.41785       85.98744
H         31.06080       52.90576       87.20361
H         31.40318       54.63983       87.03366
H         30.97003       53.63453       85.57153
N         32.09538       57.04854       86.69210
C         31.05572       58.06872       86.50257
C         30.02273       57.71696       85.42988
O         29.26206       58.59878       85.05874
C         30.33148       58.37147       87.81920
O         31.25881       58.78704       88.78310
H         32.23044       56.63094       87.62440
H         31.56993       58.99874       86.16775
H         29.80783       57.44751       88.15694
H         29.58714       59.18372       87.65871
H         30.78693       58.74821       89.65470
N         29.95847       56.47601       84.86214
C         29.10807       56.12092       83.73534
C         29.51443       56.97371       82.55756
O         28.69938       57.70304       82.00432
C         27.61611       56.20823       84.08824
H         30.58666       55.74567       85.19302
H         29.30933       55.05833       83.46602
H         27.30572       57.24415       84.32996
H         27.00727       55.85334       83.22827
H         27.39737       55.55441       84.95900
N         30.80835       56.93192       82.13500
C         31.31623       57.77885       81.06727
C         32.60177       57.23691       80.46780
O         33.17732       56.28691       80.98429
C         31.53625       59.20196       81.60152
H         31.44344       56.26626       82.60227
H         30.57142       57.77761       80.24079
H         30.59442       59.62044       82.01260
H         32.28910       59.18336       82.41937
H         31.90212       59.88028       80.80347
N         33.06321       57.76703       79.29971
C         34.23575       57.29848       78.56531
C         34.12054       55.85323       78.07105
O         35.06895       55.39417       77.44874
C         35.53508       57.48242       79.38103
C         35.73768       58.93008       79.84941
C         37.09397       59.10488       80.47046
O         38.10194       58.91000       79.80908
O         37.20746       59.50026       81.75057
H         32.53799       58.55135       78.88150
H         34.33789       57.93321       77.65652
H         36.38688       57.20425       78.72129
H         35.55162       56.80475       80.25800
H         34.94922       59.19416       80.58757
H         35.66134       59.62490       78.98637
N         33.01573       55.07612       78.28467
C         32.92109       53.69280       77.86101
H         32.06120       53.57565       77.16986
H         33.83890       53.33804       77.34743
H         32.75527       53.05059       78.75209
H         32.18989       55.45146       78.76572
Ca        37.69215       58.98815       84.57698
O         36.22597       56.25688       82.75896
H         36.77465       55.58177       82.28674
H         35.29207       55.96330       82.60971
O         34.94099       59.03695       83.85465
H         34.60795       58.55795       83.05546
H         34.17867       59.59126       84.15590
O         35.80601       59.71544       86.87977
H         35.25828       60.36117       86.36876
H         36.44181       60.27992       87.38679

Ca 1.0



