%chk=apoCaM-CA-Ng.loop4.water2.frame330.chk
%nprocshared=20
%mem=10GB
%nosave
#b3lyp/svp scf=(tight,noincore,xqc) Test 
#IOP(5/87=12) Density=Current Pop=(MK,readradii) iop(6/33=2) iop(6/42=6)

apoCaM-CA-Ng.loop4.water2.frame330 

   -3  1 
C         65.02728       52.23918       53.89972
C         65.47921       51.25742       52.86507
O         66.61012       50.80569       52.94837
H         64.16023       51.81661       54.44920
H         65.84270       52.43646       54.63050
H         64.73664       53.19251       53.41505
N         64.62390       50.84339       51.88224
C         64.95116       49.82385       50.88894
C         65.31664       48.53477       51.60019
O         66.45232       48.10479       51.53177
C         65.92590       50.34187       49.79179
C         67.25600       50.89714       50.22548
O         68.17672       50.11289       50.80974
O         67.52544       52.06735       50.00432
H         63.66541       51.22346       51.87710
H         64.03156       49.58635       50.30743
H         65.38878       51.15541       49.25448
H         66.10629       49.52853       49.05510
N         64.34988       47.90687       52.34015
C         64.46954       46.70851       53.17815
C         64.72201       45.43534       52.36883
O         63.83018       44.59690       52.35033
C         65.41966       46.93431       54.38596
C         65.46082       45.72956       55.36929
C         65.00120       48.21168       55.14388
C         64.13158       45.38673       56.05506
H         63.41672       48.34813       52.34162
H         63.46038       46.57004       53.62720
H         66.45283       47.08179       54.00760
H         66.18966       45.95897       56.17491
H         65.82601       44.82746       54.83551
H         65.63848       48.36732       56.03238
H         65.09888       49.10277       54.49633
H         63.94593       48.16051       55.48137
H         64.28811       44.53508       56.74973
H         63.75630       46.23892       56.65829
H         63.36082       45.08712       55.31762
N         65.86237       45.21087       51.65264
C         66.01546       44.04556       50.79237
C         66.23808       42.77480       51.59934
O         65.43496       41.86726       51.43279
C         67.07995       44.26353       49.69458
C         66.71342       45.42937       48.81221
O         65.53805       45.44046       48.15406
O         67.48160       46.36639       48.67906
H         66.62127       45.89466       51.65851
H         65.07040       43.91682       50.21340
H         67.12061       43.35687       49.05222
H         68.08649       44.43345       50.11241
N         67.25464       42.57792       52.49404
C         68.27412       43.56137       52.86105
C         69.24156       43.03726       53.91507
O         69.05404       41.91720       54.36997
H         67.26563       41.65384       52.95099
H         67.76217       44.44611       53.27708
H         68.86310       43.81931       51.97236
N         70.31330       43.73500       54.40512
C         70.82392       45.06763       54.07269
C         69.82306       46.20330       54.37954
O         69.01113       46.44152       53.26554
C         71.43363       45.14763       52.65998
C         72.22732       46.41898       52.47216
O         73.42503       46.36127       52.24593
O         71.63144       47.62402       52.55721
H         70.85638       43.25079       55.13584
H         71.69586       45.23133       54.74293
H         70.65628       45.08799       51.87573
H         72.11997       44.28302       52.53212
N         69.00057       45.95952       55.57914
C         69.75885       45.75316       56.82804
C         69.11421       44.66548       57.64536
O         67.98349       44.28813       57.36722
H         68.33519       46.75370       55.71976
H         69.84926       46.69173       57.42002
H         70.78586       45.40777       56.63169
N         69.81666       44.05380       58.64214
C         69.24138       42.96655       59.42444
C         68.25570       43.49744       60.45269
O         67.57789       42.68498       61.06935
C         70.32422       42.10072       60.11522
C         71.19241       41.29052       59.12867
C         72.14083       42.12242       58.30762
N         73.13212       42.82720       58.90087
O         72.03051       42.13985       57.09186
H         70.78973       44.34540       58.81547
H         68.68727       42.28955       58.73523
H         69.79660       41.34176       60.73445
H         70.95237       42.71173       60.79905
H         70.51857       40.70802       58.46107
H         71.80620       40.56248       59.70058
H         73.25511       42.80508       59.92344
H         73.78876       43.38453       58.33451
N         68.12376       44.83471       60.70571
C         67.17404       45.37697       61.66819
C         67.86710       46.02372       62.85891
O         67.16232       46.34392       63.80431
C         66.17877       46.35506       60.98168
C         65.30083       45.61556       59.96177
C         66.88349       47.53949       60.29825
H         68.72888       45.50316       60.21102
H         66.57503       44.55032       62.11190
H         65.49953       46.76509       61.76183
H         64.56361       46.31453       59.51148
H         65.91501       45.17654       59.14749
H         64.73725       44.80126       60.46520
H         67.52275       47.20145       59.45616
H         66.12396       48.23303       59.88246
H         67.50957       48.10139       61.02244
N         69.22166       46.22658       62.91433
C         69.88425       46.69981       64.12830
C         70.46308       48.09392       63.99674
O         70.88186       48.61174       65.02596
C         71.01744       45.72334       64.50910
C         70.53776       44.30442       64.67020
N         69.63789       43.97967       65.62570
O         70.97726       43.43453       63.93237
H         69.81538       46.00817       62.10362
H         69.15335       46.75333       64.96318
H         71.50201       46.04616       65.45648
H         71.78823       45.75127       63.70555
H         69.26389       44.69652       66.26362
H         69.32015       43.00497       65.73196
N         70.54558       48.77184       62.81382
C         71.14262       50.10746       62.72402
C         71.08176       50.71340       61.33551
O         71.03865       49.99245       60.34774
C         72.61746       50.12508       63.22556
C         73.43132       48.93613       62.74336
C         73.89309       47.99901       63.68700
C         73.72709       48.72786       61.38395
C         74.61384       46.87443       63.28318
C         74.44801       47.59723       60.98098
C         74.88974       46.66609       61.92672
O         75.57678       45.57840       61.52313
H         70.18595       48.32778       61.95492
H         70.53911       50.78696       63.36729
H         72.59541       50.10428       64.33302
H         73.11893       51.08342       62.96875
H         73.68554       48.12952       64.74167
H         73.40589       49.42917       60.62998
H         74.95116       46.16371       64.02714
H         74.66158       47.44268       59.93073
H         75.89410       44.91053       62.14822
N         71.17053       52.07464       61.22624
C         71.25836       52.87143       60.00582
C         69.94111       53.02268       59.24781
O         69.64214       54.13750       58.83951
C         72.46009       52.45381       59.13555
C         72.85975       53.56674       58.14986
C         74.12127       53.21685       57.41615
O         75.22182       53.97972       57.56871
O         74.15766       52.24554       56.67868
H         71.25413       52.60850       62.10646
H         71.50221       53.90222       60.35431
H         72.25511       51.49936       58.60487
H         73.32880       52.29997       59.81441
H         73.04707       54.50239       58.72393
H         72.04610       53.76147       57.42031
N         69.08312       51.98286       59.04230
C         67.82157       52.12241       58.32384
C         66.83839       53.03920       59.03867
O         65.81207       53.35592       58.45118
C         67.12246       50.75657       58.16636
C         67.96439       49.64862       57.53313
C         68.40823       49.96701       56.14558
O         69.35038       50.71276       55.93051
O         67.82226       49.30377       55.14631
H         69.32239       51.06122       59.39720
H         68.04790       52.53912       57.31757
H         66.20164       50.88458       57.55289
H         66.81533       50.39530       59.17155
H         67.31492       48.74959       57.49526
H         68.84389       49.35037       58.13935
N         67.04404       53.46332       60.31821
C         66.08817       54.29651       61.01008
H         65.10989       53.77378       61.07508
H         66.44788       54.50462       62.03998
H         65.96439       55.25826       60.47014
H         67.88143       53.17276       60.84131
Ca        68.83489       48.67719       53.29644
O         70.61795       51.28261       52.68099
H         71.14045       51.53790       53.48243
H         70.00314       52.04441       52.53183
O         69.71546       47.38721       50.36665
H         70.44374       47.39000       49.69685
H         68.99845       47.92349       49.94858

Ca 1.0



