%chk=apoCaM-CA-Ng.loop4.water4.frame79.chk
%nprocshared=20
%mem=10GB
%nosave
#b3lyp/svp scf=(tight,noincore,xqc) Test 
#IOP(5/87=12) Density=Current Pop=(MK,readradii) iop(6/33=2) iop(6/42=6)

apoCaM-CA-Ng.loop4.water4.frame79 

   -3  1 
C         46.09238       66.36479       30.87947
C         46.42046       67.64608       30.17818
O         46.31486       68.69204       30.79429
H         45.24153       65.87097       30.36842
H         46.97754       65.69435       30.86139
H         45.81756       66.55704       31.93949
N         46.84925       67.62367       28.88397
C         47.25871       68.79169       28.11088
C         48.50350       69.54462       28.70676
O         48.30695       70.09654       29.97375
C         46.06168       69.57641       27.46715
C         44.74299       69.84260       28.18471
O         44.62111       70.80576       29.11149
O         43.72730       69.29733       27.77978
H         46.93311       66.70504       28.42245
H         47.71564       68.39834       27.17361
H         45.74627       68.93699       26.60887
H         46.43664       70.51388       27.00239
N         49.66042       68.61879       28.76400
C         50.97196       69.16793       29.19815
C         51.49715       70.21147       28.21649
O         52.53779       69.95927       27.62319
C         51.00754       69.54900       30.71332
C         52.38010       70.07162       31.20895
C         50.55285       68.32635       31.54231
C         53.54716       69.09172       31.09005
H         49.80426       68.18845       27.82056
H         51.68357       68.31446       29.12595
H         50.32693       70.39038       30.92239
H         52.27859       70.34814       32.28249
H         52.63775       70.99853       30.65358
H         50.59054       68.53599       32.62268
H         49.50997       68.03996       31.29076
H         51.19980       67.44536       31.34778
H         54.46276       69.57425       31.49250
H         53.35879       68.17284       31.68159
H         53.73692       68.82419       30.03218
N         50.81557       71.35602       27.92187
C         51.24984       72.24927       26.85366
C         52.55170       72.96547       27.21539
O         53.50393       72.79114       26.46775
C         50.11549       73.19913       26.39268
C         48.91702       72.47013       25.82478
O         48.87371       71.24988       25.77816
O         47.87839       73.18199       25.34802
H         49.92763       71.56027       28.39807
H         51.45330       71.63108       25.94645
H         50.51101       73.85183       25.58433
H         49.74960       73.83708       27.21136
N         52.73363       73.76099       28.31529
C         51.70683       74.04362       29.30966
C         52.17302       74.94827       30.44782
O         53.32905       75.34676       30.44297
H         53.67203       74.17142       28.43325
H         51.36483       73.08719       29.74349
H         50.90520       74.56863       28.79235
N         51.36234       75.34695       31.48465
C         49.95728       74.99363       31.71483
C         49.82521       73.49264       31.93700
O         49.27106       72.81756       31.08151
C         49.00987       75.56260       30.63369
C         49.20548       77.04441       30.46587
O         49.51851       77.50275       29.37885
O         49.03904       77.87365       31.51453
H         51.78873       75.96197       32.19577
H         49.60201       75.50422       32.63366
H         47.96053       75.38300       30.94448
H         49.12303       75.06098       29.66413
N         50.32990       72.86215       33.04246
C         50.83802       73.53251       34.23315
C         52.31355       73.34231       34.44055
O         52.97296       72.68661       33.64631
H         50.29186       71.83403       33.07060
H         50.27888       73.15992       35.11882
H         50.68062       74.62251       34.19386
N         52.91205       73.98950       35.48163
C         54.35907       74.03282       35.65256
C         54.96479       72.70330       36.07186
O         56.18608       72.61893       36.05550
C         54.77317       75.12699       36.66559
C         54.35923       76.54005       36.20519
C         54.87259       77.63535       37.11058
N         54.61987       78.92942       36.80666
O         55.52430       77.36810       38.11028
H         52.31580       74.55643       36.10435
H         54.80127       74.31136       34.66958
H         55.88209       75.11699       36.75395
H         54.33807       74.90784       37.66672
H         53.25315       76.62150       36.15351
H         54.77357       76.72009       35.19008
H         54.07676       79.17543       35.96589
H         54.97318       79.68839       37.40824
N         54.21393       71.63753       36.48290
C         54.81444       70.36509       36.88366
C         54.66169       70.08238       38.37224
O         55.23074       69.09235       38.80802
C         54.30340       69.18670       36.00852
C         54.75195       69.35904       34.55150
C         52.78012       69.00093       36.07661
H         53.19010       71.73432       36.53984
H         55.91741       70.40260       36.74081
H         54.77880       68.25102       36.37940
H         54.44444       68.47611       33.95265
H         54.31078       70.27233       34.10144
H         55.85977       69.43413       34.49948
H         52.25095       69.87941       35.65481
H         52.48209       68.10894       35.48479
H         52.45055       68.84676       37.12514
N         53.98423       70.91283       39.22567
C         54.01749       70.72304       40.68038
C         52.65475       70.43010       41.28951
O         52.61631       70.09650       42.46851
C         54.59006       71.99615       41.33677
C         55.86321       72.46811       40.67732
N         56.96353       71.68431       40.63529
O         55.89238       73.57598       40.16080
H         53.49639       71.74120       38.85859
H         54.67143       69.86144       40.93194
H         54.76629       71.81866       42.41989
H         53.83695       72.81083       41.24044
H         56.96001       70.74540       41.05729
H         57.82018       72.01842       40.16913
N         51.50169       70.56913       40.58045
C         50.15131       70.37622       41.12853
C         49.09083       70.61262       40.06281
O         49.43156       71.12934       39.00868
C         49.89883       71.31656       42.34480
C         50.23817       72.76762       42.05251
C         49.49253       73.52692       41.13427
C         51.32687       73.37504       42.70417
C         49.83640       74.85224       40.85885
C         51.67132       74.70123       42.42716
C         50.92812       75.44336       41.49923
O         51.25183       76.72102       41.21634
H         51.59656       70.85141       39.59632
H         50.05375       69.31662       41.45476
H         50.52791       70.96532       43.18603
H         48.85373       71.23321       42.71121
H         48.64289       73.10427       40.62836
H         51.92120       72.81950       43.41875
H         49.25286       75.41881       40.14386
H         52.51854       75.14826       42.93131
H         52.00331       77.16566       41.63348
N         47.77571       70.31435       40.29451
C         46.67206       70.53240       39.35302
C         46.64379       69.49589       38.22684
O         45.63006       68.82102       38.10039
C         46.61313       72.00915       38.88933
C         45.41373       72.32343       37.98843
C         45.33305       73.80368       37.73461
O         45.14570       74.65367       38.76380
O         45.42989       74.24337       36.60032
H         47.52464       69.93585       41.22195
H         45.72557       70.36829       39.91838
H         47.52511       72.31326       38.33948
H         46.53048       72.62823       39.80969
H         44.46894       72.00189       38.47482
H         45.52613       71.77719       37.02600
N         47.69176       69.29157       37.37923
C         47.66773       68.32913       36.28297
C         47.52160       66.88970       36.76262
O         47.31923       66.02157       35.92393
C         48.95346       68.43097       35.41349
C         49.28051       69.85755       34.93137
C         48.12822       70.47827       34.20710
O         47.53565       71.56892       34.72435
O         47.70951       69.99207       33.16957
H         48.52669       69.85139       37.48843
H         46.78929       68.58118       35.64814
H         48.83666       67.76853       34.52681
H         49.82840       68.06774       35.99668
H         50.17614       69.84277       34.28553
H         49.55754       70.50640       35.78446
N         47.63161       66.54562       38.07865
C         47.48353       65.17967       38.52882
H         46.46536       64.80995       38.28364
H         48.24375       64.53350       38.04125
H         47.62494       65.12775       39.62952
H         47.84070       67.25621       38.79327
Ca        46.48472       71.34956       30.09135
O         47.24902       73.66097       28.48804
H         46.73987       73.05000       27.89913
H         46.55859       74.22402       28.91942
O         46.57114       73.98417       32.73203
H         46.60193       74.95130       32.93799
H         47.14967       73.57730       33.42046
O         44.21042       70.57126       32.21063
H         43.66218       69.95786       31.65937
H         44.29419       70.11270       33.08395
O         44.41537       73.52606       30.78085
H         44.16224       74.47958       30.85988
H         43.82472       73.17024       30.07111

Ca 1.0



