%chk=apoCaM-CA-Ng.loop1.water5.frame529.chk
%nprocshared=20
%mem=10GB
%nosave
#b3lyp/svp scf=(tight,noincore,xqc) Test 
#IOP(5/87=12) Density=Current Pop=(MK,readradii) iop(6/33=2) iop(6/42=6)

apoCaM-CA-Ng.loop1.water5.frame529 

   0  1 
C         86.06980       24.28772       39.27191
C         85.84044       24.58442       37.81886
O         86.19106       25.66419       37.36546
H         86.55643       25.14744       39.78016
H         85.09672       24.08673       39.76836
H         86.72087       23.39459       39.37468
N         85.23720       23.65340       37.02563
C         84.92929       23.83938       35.60731
C         86.21924       23.94295       34.77908
O         87.29066       23.80026       35.35237
C         83.94031       25.02326       35.44598
C         83.05997       24.98264       34.21910
O         83.05706       24.02598       33.46034
O         82.18461       25.98356       34.01128
H         84.95493       22.75933       37.45786
H         84.39969       22.91567       35.28318
H         84.49407       25.98353       35.49630
H         83.22125       24.99604       36.29432
N         86.20070       24.10217       33.41736
C         87.38345       23.99706       32.55981
C         87.94885       22.57728       32.57583
O         88.99714       22.34766       31.98836
C         88.46846       25.05911       32.86425
C         88.06505       26.50333       32.51750
C         86.99247       27.10715       33.43065
C         86.74185       28.57504       33.06103
N         85.75247       29.17687       33.95264
H         85.30867       24.23495       32.93313
H         87.07825       24.16469       31.50243
H         89.33250       24.83935       32.19868
H         88.84339       24.99431       33.90525
H         87.73298       26.55070       31.45622
H         88.98150       27.12582       32.61516
H         87.34049       27.04788       34.48470
H         86.03592       26.55917       33.33030
H         86.37868       28.63752       32.01036
H         87.69400       29.14641       33.13642
H         84.84228       28.66726       33.87762
H         86.09593       29.14470       34.94012
H         85.60815       30.17512       33.67725
N         87.23922       21.55042       33.12503
C         87.64298       20.15331       33.06815
C         86.41789       19.34306       33.48406
O         85.97760       19.53106       34.61067
C         88.85835       19.90068       33.99506
C         89.48052       18.53789       33.84996
O         89.07941       17.74199       33.01868
O         90.53444       18.20987       34.62011
H         86.30861       21.75254       33.51330
H         87.93547       19.95030       32.02433
H         88.55266       20.05530       35.05291
H         89.66180       20.63020       33.76548
N         85.70737       18.53477       32.64572
C         86.08921       18.07725       31.32190
C         85.91837       16.58470       31.31054
O         85.15269       16.07055       30.50769
H         84.80104       18.18947       32.98872
H         87.13430       18.31240       31.06269
H         85.41708       18.53177       30.56221
N         86.53401       15.83970       32.26855
C         86.28059       14.41756       32.45733
C         86.81750       13.90390       33.82152
O         86.93217       14.93040       34.76462
C         86.86939       13.59113       31.29093
C         88.35929       13.77174       31.10320
O         88.92645       13.17154       30.20506
O         89.07512       14.59711       31.89244
H         87.12095       16.33987       32.94629
H         85.17450       14.29045       32.49204
H         86.37542       13.88595       30.34241
H         86.65556       12.51449       31.45770
N         85.95314       12.81509       34.31688
C         86.07765       12.55863       35.76116
C         85.26338       13.50750       36.63328
O         85.33185       13.34901       37.84018
H         86.23688       11.95006       33.80188
H         87.14787       12.58807       36.05998
H         85.70226       11.53354       35.97354
N         84.46101       14.49086       36.12194
C         83.66369       15.39664       36.95910
C         84.55093       16.22376       37.88869
O         85.43585       16.91878       37.41470
C         82.73133       16.29463       36.10059
C         83.46639       17.24137       35.14508
O         81.87555       15.46516       35.35662
H         84.38643       14.57534       35.09981
H         82.98321       14.77416       37.58121
H         82.12290       16.90997       36.80502
H         81.09855       16.01970       35.08286
H         84.09579       16.66694       34.43818
H         82.72912       17.82936       34.55842
H         84.09482       17.96715       35.69489
N         84.37759       16.15455       39.24171
C         85.24638       16.82522       40.21600
C         86.07487       15.80544       40.98390
O         86.88701       16.20305       41.81105
C         84.40528       17.73764       41.17746
C         83.37739       17.00766       42.10075
C         83.65384       18.79330       40.34951
C         83.98212       16.22431       43.27186
H         83.62039       15.55641       39.60194
H         85.97850       17.47291       39.68552
H         85.10437       18.29882       41.83769
H         82.70289       16.35359       41.51070
H         82.74121       17.77884       42.58781
H         83.11861       19.49916       41.02164
H         84.36606       19.38501       39.73739
H         82.90609       18.31689       39.68020
H         83.16524       15.81715       43.90473
H         84.58505       15.36342       42.95124
H         84.60583       16.89564       43.90044
N         85.87990       14.47024       40.80040
C         86.47060       13.41496       41.59640
C         85.32973       12.78524       42.35902
O         84.33622       12.42257       41.74219
C         87.16580       12.37454       40.69570
C         88.37170       12.98079       39.97885
O         87.60143       11.29676       41.48549
H         85.19059       14.14672       40.11307
H         87.22150       13.81200       42.31645
H         86.42785       12.01592       39.93798
H         87.56490       10.48435       40.91530
H         89.12040       13.33630       40.71942
H         88.84787       12.20795       39.34001
H         88.06154       13.83354       39.33934
N         85.39712       12.65851       43.70911
C         84.31299       12.16024       44.54981
C         84.80690       12.06191       45.97909
O         84.18629       12.62545       46.86918
C         83.74730       10.77807       44.08623
C         82.58657       10.31663       44.97634
O         84.74059        9.78673       44.07433
H         86.27438       12.95390       44.16802
H         83.46507       12.88137       44.49728
H         83.29005       10.85791       43.07749
H         85.18288        9.83233       43.18675
H         82.17264        9.36056       44.59206
H         82.92009       10.15584       46.02282
H         81.77424       11.07590       44.97018
N         85.91348       11.31295       46.25815
C         86.34707       10.98096       47.60071
C         87.75547       11.47203       47.87348
O         88.67753       11.09701       47.16187
C         86.29938        9.44365       47.73500
C         86.70784        8.90560       49.11600
C         85.72884        9.31579       50.22217
C         86.12970        8.68964       51.56144
N         85.16552        9.03513       52.60428
H         86.44111       10.89314       45.47780
H         85.65018       11.41998       48.34339
H         86.98749        9.00115       46.97999
H         85.27297        9.08567       47.49869
H         87.73820        9.23754       49.36993
H         86.71522        7.79588       49.04958
H         84.70973        8.96627       49.94659
H         85.71198       10.41927       50.33891
H         87.14005        9.05396       51.85398
H         86.17042        7.58248       51.45638
H         85.12697       10.07266       52.73023
H         84.21741        8.67513       52.34702
H         85.46186        8.59264       53.50370
N         87.99671       12.23535       48.97489
C         89.34023       12.54894       49.44723
C         90.12387       13.41044       48.46262
O         91.17333       12.94829       48.03701
C         89.31501       13.15620       50.87272
C         88.71815       12.16564       51.89512
C         88.71196       12.74088       53.28034
O         88.06804       13.74869       53.52535
O         89.39684       12.13172       54.26688
H         87.19158       12.51796       49.55269
H         89.89338       11.58671       49.55537
H         88.74372       14.10456       50.89961
H         90.36006       13.37878       51.18290
H         89.32070       11.23092       51.89145
H         87.67280       11.90037       51.63467
N         89.75110       14.65234       48.03349
C         88.53246       15.35162       48.38013
H         87.85686       14.76933       49.02541
H         88.78982       16.30247       48.89222
H         87.97743       15.58801       47.44858
H         90.38705       15.14684       47.38798
Ca        89.19391       15.23539       34.83043
O         88.28264       17.04566       36.96896
H         89.01094       17.71119       37.04397
H         87.81097       17.28924       36.13264
O         90.67333       12.51788       33.69337
H         91.22358       12.96168       32.99993
H         91.32698       12.21793       34.37388
O         92.44226       15.66911       33.63241
H         92.77045       15.60817       32.70018
H         93.19484       16.07173       34.13455
O         91.56706       16.16718       36.78282
H         91.56147       15.91641       37.74051
H         92.15613       16.96159       36.73736
O         89.65684       13.51212       37.11502
H         89.49741       12.58769       36.79946
H         90.57145       13.49143       37.49214

Ca 1.0



