%chk=apoCaM-CA-Ng.loop2.water4.frame722.chk
%nprocshared=20
%mem=10GB
%nosave
#b3lyp/svp scf=(tight,noincore,xqc) Test 
#IOP(5/87=12) Density=Current Pop=(MK,readradii) iop(6/33=2) iop(6/42=6)

apoCaM-CA-Ng.loop2.water4.frame722 

   -2  1 
C         74.06660      109.03329       -4.90347
C         74.53358      110.28874       -5.58624
O         73.78605      111.25440       -5.61571
H         73.08495      108.71984       -5.31862
H         74.78539      108.19934       -5.05013
H         73.95596      109.21914       -3.81520
N         75.76893      110.34480       -6.15816
C         76.28204      111.50320       -6.88254
C         76.97632      112.47084       -5.91735
O         78.19800      112.53626       -5.91771
C         77.18398      110.98593       -8.04277
C         77.55536      112.03458       -9.05834
O         78.84746      112.24040       -9.37811
O         76.68394      112.64468       -9.65836
H         76.36879      109.50585       -6.10362
H         75.44238      112.03500       -7.38169
H         76.61899      110.20999       -8.60408
H         78.10229      110.50603       -7.63837
N         76.24431      113.26422       -5.06727
C         76.83601      114.23789       -4.13917
C         76.53184      113.86153       -2.69572
O         75.56026      113.15232       -2.47163
C         76.31707      115.65502       -4.45025
H         75.21733      113.19333       -5.09103
H         77.93616      114.22551       -4.25983
H         76.57770      115.94328       -5.49015
H         75.21281      115.71637       -4.33427
H         76.76391      116.41101       -3.77302
N         77.30257      114.25561       -1.63464
C         78.40590      115.21324       -1.67450
C         79.75374      114.64639       -1.30010
O         79.85064      113.71266       -0.51880
C         78.05290      116.41647       -0.79188
C         77.70438      116.11224        0.64186
O         77.95353      114.91576        1.19557
O         77.20428      116.98759        1.32725
H         77.03717      113.88583       -0.71385
H         78.54000      115.61216       -2.69506
H         77.15955      116.87293       -1.25570
H         78.88019      117.15770       -0.79229
N         80.86177      115.23787       -1.82919
C         82.21367      114.77062       -1.61864
C         82.90756      114.56717       -2.95397
O         82.34790      114.91404       -3.98495
H         80.74129      116.06396       -2.43644
H         82.22270      113.83021       -1.02889
H         82.77397      115.54731       -1.05195
N         84.15990      114.04946       -3.03911
C         84.90242      113.58377       -1.88212
C         84.52489      112.14832       -1.51058
O         84.17733      111.37128       -2.39116
C         86.40532      113.80585       -2.08242
C         87.04634      112.83211       -3.03428
N         87.88183      111.88646       -2.55025
O         86.81795      112.88907       -4.23366
H         84.61025      114.03396       -3.96643
H         84.66168      114.24070       -1.02149
H         86.88822      113.70927       -1.08942
H         86.58258      114.84718       -2.43631
H         88.04943      111.81184       -1.53566
H         88.33853      111.21242       -3.17919
N         84.61904      111.72482       -0.21645
C         84.29946      110.36214        0.20827
C         83.62091      110.25344        1.56768
O         83.30248      109.13445        1.94861
H         85.02150      112.38563        0.45932
H         85.25302      109.79854        0.30500
H         83.67575      109.84264       -0.55062
N         83.45231      111.32409        2.40001
C         83.01353      111.17632        3.78049
C         81.55950      110.76906        3.89191
O         80.67123      111.41285        3.35194
C         83.33221      112.42900        4.61553
C         82.82790      112.28151        6.06432
O         84.72586      112.64377        4.60723
H         83.75311      112.25876        2.10511
H         83.64244      110.38453        4.24381
H         82.84247      113.32011        4.17272
H         85.13939      112.06606        5.30544
H         81.72045      112.20372        6.09555
H         83.25731      111.36672        6.53069
H         83.13688      113.16732        6.65249
N         81.28685      109.67611        4.64756
C         79.98589      109.08124        4.86644
C         79.20215      109.81979        5.95349
O         79.71378      110.08061        7.03161
C         80.18523      107.58042        5.22002
C         78.83671      106.96147        5.67538
C         80.81610      106.83836        4.02248
C         78.73718      105.43836        5.70063
H         82.08634      109.19914        5.08647
H         79.41644      109.08145        3.90789
H         80.90783      107.50862        6.06514
H         78.01095      107.31623        5.02578
H         78.65689      107.34136        6.70389
H         81.69666      107.37738        3.60658
H         81.18656      105.84656        4.35366
H         80.07599      106.70718        3.21028
H         78.60092      105.04752        4.66786
H         79.62215      104.96647        6.17017
H         77.82879      105.16254        6.27851
N         77.90634      110.13292        5.69682
C         76.95573      110.83954        6.52890
C         75.59291      110.13353        6.70861
O         74.78962      110.67645        7.45664
C         76.64309      112.13906        5.76230
C         77.88847      112.93561        5.49356
O         78.40015      113.12646        4.26190
O         78.46936      113.44984        6.43105
H         77.59726      109.94160        4.77412
H         77.40501      111.02649        7.52894
H         75.92617      112.76349        6.33349
H         76.17108      111.85396        4.79295
N         75.21564      108.99579        6.03840
C         73.85626      108.45180        6.10723
C         73.40189      107.87714        4.74502
O         73.14165      106.68369        4.67621
C         73.80820      107.40666        7.24618
C         72.40146      107.04269        7.67363
C         71.55316      108.02320        8.22678
C         71.93647      105.72139        7.56859
C         70.26571      107.68748        8.65668
C         70.65307      105.38688        8.01776
C         69.81842      106.36923        8.55817
H         75.89239      108.49535        5.46029
H         73.14605      109.26190        6.38194
H         74.30303      107.82678        8.14762
H         74.39301      106.51162        6.93833
H         71.88967      109.04643        8.33795
H         72.56882      104.94995        7.14848
H         69.61696      108.44652        9.07630
H         70.30539      104.36440        7.95152
H         68.82621      106.11015        8.90520
N         73.24169      108.64955        3.61657
C         72.73897      108.12426        2.33547
C         73.61667      107.03623        1.67210
O         73.17295      106.36047        0.75545
C         72.76342      109.35682        1.40679
C         72.71399      110.55408        2.34346
C         73.46536      110.08216        3.58424
H         71.71129      107.74904        2.52496
H         73.75702      109.41938        0.90871
H         71.97918      109.34953        0.61741
H         73.10381      111.50365        1.90947
H         71.65527      110.71532        2.63140
H         74.55226      110.27410        3.51944
H         73.05034      110.61446        4.46813
N         74.92802      106.95778        2.00974
C         75.98065      106.16248        1.39098
C         75.91583      104.75273        1.92560
O         76.31451      103.82632        1.23328
C         77.40974      106.75629        1.62941
C         77.63417      108.22956        1.20646
C         77.17386      109.24602        2.19042
O         77.45265      110.41329        2.03996
O         76.57726      108.88639        3.30824
H         75.16242      107.49275        2.80751
H         75.81391      106.15333        0.29127
H         78.11741      106.15616        1.01640
H         77.72983      106.64423        2.68840
H         77.18648      108.43279        0.21314
H         78.72835      108.40584        1.16832
N         75.39582      104.52137        3.16389
C         75.05767      103.20570        3.64017
H         74.06427      102.94534        3.21705
H         75.80911      102.44878        3.33903
H         74.95675      103.22645        4.74596
H         75.10716      105.31161        3.75618
Ca        78.39010      112.89981        2.03325
O         77.45397      111.53430       -0.37129
H         76.74824      110.84867       -0.27880
H         77.74416      111.47333       -1.31327
O         80.30511      110.92313        0.18446
H         80.37062      109.95487       -0.00651
H         80.81838      111.35121       -0.54563
O         80.63537      114.34136        2.74179
H         81.15082      114.94311        2.15045
H         80.76991      114.69330        3.65681
O         75.51136      112.86706        1.97443
H         75.64382      111.89997        2.11583
H         75.27746      112.93309        1.01614

Ca 1.0



