%chk=apoCaM-CA-Ng.loop1.water3.frame1475.chk
%nprocshared=20
%mem=10GB
%nosave
#b3lyp/svp scf=(tight,noincore,xqc) Test 
#IOP(5/87=12) Density=Current Pop=(MK,readradii) iop(6/33=2) iop(6/42=6)

apoCaM-CA-Ng.loop1.water3.frame1475 

   0  1 
C         55.46349       60.63596       58.71740
C         54.55906       61.47403       59.56993
O         55.00538       62.50952       60.03907
H         56.36165       60.35378       59.30761
H         54.95904       59.70803       58.37811
H         55.78435       61.21894       57.82906
N         53.27179       61.09044       59.81522
C         52.37151       61.83455       60.69459
C         51.91021       60.96831       61.85624
O         50.77023       61.07223       62.29022
C         51.21795       62.46734       59.88893
C         50.30559       61.48983       59.18825
O         49.38988       61.91745       58.50488
O         50.47060       60.15742       59.30324
H         52.92844       60.22238       59.38008
H         52.91631       62.67572       61.15571
H         51.66759       63.13521       59.12217
H         50.60317       63.09672       60.56864
N         52.76818       60.06417       62.39756
C         52.42731       59.18432       63.50638
C         52.39524       59.93582       64.83161
O         51.38664       59.82029       65.51239
C         53.33485       57.93392       63.54185
C         53.22000       57.18335       62.19802
C         53.89291       55.81161       62.19705
C         53.73971       55.17337       60.80551
N         54.29885       53.82491       60.76979
H         53.69272       59.95708       61.95650
H         51.41077       58.76244       63.32489
H         52.96841       57.27129       64.35767
H         54.39553       58.18661       63.75055
H         53.66796       57.80024       61.39044
H         52.14405       57.02523       61.96177
H         53.40088       55.16829       62.95931
H         54.97100       55.91093       62.44757
H         54.25748       55.80782       60.05077
H         52.66130       55.12208       60.53261
H         53.78628       53.20991       61.44267
H         54.18410       53.43757       59.80494
H         55.31600       53.84898       61.00932
N         53.38428       60.77209       65.27986
C         54.59741       61.14463       64.55209
C         54.40667       62.54420       63.96357
O         53.34989       63.13309       64.16022
C         55.83770       61.01449       65.46141
C         55.76821       61.99253       66.58239
O         55.73145       63.30391       66.30547
O         55.64353       61.60999       67.73451
H         53.19920       61.27347       66.16451
H         54.78326       60.45685       63.71835
H         56.77016       61.20066       64.88857
H         55.87928       59.97693       65.86153
N         55.35683       63.11908       63.17687
C         55.11856       64.37171       62.47168
C         55.07373       65.60958       63.33405
O         55.42812       65.57703       64.50109
H         56.22603       62.60129       62.97853
H         54.16078       64.29161       61.92506
H         55.92037       64.53728       61.72197
N         54.62674       66.76637       62.76419
C         54.65357       68.07747       63.40649
C         55.23166       69.10753       62.42423
O         55.16504       68.87654       61.22640
C         53.22209       68.48662       63.81081
C         52.66858       67.56063       64.85650
O         51.65194       66.92185       64.63870
O         53.28699       67.44479       66.04776
H         54.23731       66.70737       61.81121
H         55.27828       68.03152       64.32093
H         52.56460       68.49002       62.91372
H         53.20645       69.50691       64.24083
N         55.76805       70.30220       62.81597
C         55.96741       70.70043       64.19294
C         57.05031       69.89464       64.87232
O         57.74088       69.11263       64.23175
H         56.05457       70.97154       62.08350
H         55.01406       70.62319       64.74804
H         56.28469       71.76567       64.23209
N         57.23642       70.05265       66.20632
C         58.25929       69.37111       66.99554
C         58.18733       67.85107       66.84860
O         57.10225       67.29068       66.87163
C         58.12871       69.81016       68.47305
C         59.22165       69.21671       69.36581
O         56.86262       69.45390       68.96536
H         56.60144       70.70908       66.68963
H         59.25765       69.71196       66.64079
H         58.24123       70.92169       68.48814
H         56.61787       70.12427       69.65540
H         60.22391       69.50962       68.98773
H         59.10654       69.60408       70.39993
H         59.15428       68.10961       69.39663
N         59.34938       67.13838       66.71969
C         59.48291       65.69115       66.54168
C         58.88534       64.88747       67.68556
O         57.67992       64.89951       67.87311
C         58.91875       65.21448       65.17279
C         59.54480       65.97819       63.97696
C         59.09109       63.69005       64.98991
C         61.05960       65.80306       63.80950
H         60.23524       67.66578       66.74949
H         60.57093       65.46933       66.52709
H         57.83105       65.42166       65.15431
H         59.33383       67.06101       64.08562
H         59.05050       65.63674       63.04158
H         58.68027       63.36801       64.01029
H         60.15847       63.39252       65.05376
H         58.54066       63.13092       65.77352
H         61.61231       66.18546       64.69125
H         61.32650       64.74031       63.63922
H         61.39765       66.38269       62.92579
N         59.68941       64.08342       68.43413
C         59.19845       63.13662       69.42781
C         59.66886       63.47481       70.83055
O         59.35753       62.70842       71.72756
C         59.58158       61.68831       69.01251
C         61.08478       61.45757       68.82123
O         58.93514       61.36181       67.81076
H         60.70527       64.11377       68.26428
H         58.08709       63.16092       69.48596
H         59.25019       60.98371       69.81352
H         58.05034       60.98752       68.05569
H         61.47988       62.06139       67.97792
H         61.64592       61.70092       69.74627
H         61.26245       60.39063       68.56682
N         60.37739       64.60989       71.11154
C         60.74988       65.00850       72.46906
C         59.46616       65.34236       73.23924
O         59.02033       66.47695       73.15235
C         61.71536       66.23112       72.38756
C         62.30688       66.61308       73.74457
O         62.77981       65.92619       71.51869
H         60.64518       65.23235       70.33652
H         61.30489       64.17138       72.94882
H         61.14066       67.10174       71.98420
H         62.94562       66.73005       70.95746
H         62.96945       67.49760       73.62043
H         61.51204       66.86677       74.47429
H         62.91811       65.77405       74.14110
N         58.75556       64.37023       73.89986
C         57.40432       64.53848       74.45408
C         56.38437       64.84236       73.37145
O         56.59919       65.75915       72.59174
C         57.30354       65.63041       75.52631
C         58.14273       65.32874       76.77063
C         57.99050       66.42486       77.83934
C         56.55943       66.54110       78.40288
N         56.48167       67.59266       79.41426
H         59.17028       63.43119       73.98279
H         57.09816       63.58466       74.94064
H         56.23470       65.66641       75.82096
H         57.57555       66.62407       75.11536
H         59.21214       65.27245       76.47366
H         57.84643       64.34627       77.20073
H         58.30158       67.39943       77.40437
H         58.67765       66.18205       78.67799
H         56.26105       65.56886       78.85468
H         55.83311       66.78998       77.60196
H         55.50762       67.63013       79.79321
H         57.14540       67.39317       80.19663
H         56.70936       68.51739       78.98105
N         55.19456       64.16964       73.31086
C         54.20734       64.50455       72.29486
C         54.79433       64.20893       70.90463
O         54.13835       65.01906       69.97475
C         52.81968       63.86669       72.56322
C         51.77257       64.23371       71.48799
C         50.38348       63.77078       71.82741
O         49.47330       63.98413       71.04243
O         50.12157       63.13449       72.98572
H         54.97712       63.44995       74.01650
H         54.04694       65.60602       72.35548
H         52.47415       64.25525       73.54587
H         52.88531       62.76251       72.63365
H         52.04888       63.76460       70.52077
H         51.74408       65.33608       71.35218
N         54.82225       62.79030       70.48601
C         55.48082       61.88670       71.43817
H         56.43993       62.30990       71.80347
H         54.81805       61.66359       72.30050
H         55.69909       60.91779       70.94240
H         53.87196       62.42375       70.25526
Ca        54.87945       64.47154       67.95710
O         53.58625       67.73117       69.05168
H         52.60731       67.67026       68.91704
H         53.69823       68.39427       69.77814
O         56.45774       66.72259       69.74004
H         57.36149       66.50040       70.07636
H         56.10205       67.37727       70.39126
O         52.07146       64.46059       66.83876
H         51.48286       65.25220       66.92012
H         52.72494       64.71059       66.13863

Ca 1.0



