%chk=apoCaM-CA-Ng.loop2.water5.frame1281.chk
%nprocshared=20
%mem=10GB
%nosave
#b3lyp/svp scf=(tight,noincore,xqc) Test 
#IOP(5/87=12) Density=Current Pop=(MK,readradii) iop(6/33=2) iop(6/42=6)

apoCaM-CA-Ng.loop2.water5.frame1281 

   -2  1 
C         40.95151       57.84251       13.83710
C         40.04524       57.47725       12.68627
O         40.45913       56.63563       11.90247
H         41.89130       58.28369       13.44815
H         40.52556       58.52997       14.58590
H         41.19628       56.91138       14.39081
N         38.79168       57.98635       12.49267
C         38.15960       59.04149       13.28248
C         37.48904       60.14313       12.40038
O         37.74434       59.92972       11.04758
C         37.24102       58.41029       14.35951
C         36.10167       57.45994       13.99527
O         35.56710       56.85910       14.91384
O         35.62562       57.23981       12.74694
H         38.24719       57.56247       11.73254
H         38.93409       59.58479       13.84860
H         36.82929       59.21181       15.00907
H         37.92988       57.80354       14.98920
N         37.86146       61.51458       12.80451
C         37.01816       62.56155       12.17955
C         37.47088       62.90072       10.75926
O         38.22245       63.84599       10.55907
C         37.02348       63.83606       13.04382
H         37.70282       61.55415       13.83851
H         35.95257       62.23571       12.15330
H         38.05378       64.23824       13.14951
H         36.37582       64.61426       12.58407
H         36.62315       63.61657       14.05634
N         36.97501       62.18872        9.71408
C         37.23470       62.46324        8.30506
C         35.90765       62.74421        7.60924
O         34.88564       62.80656        8.27950
C         38.03620       61.29434        7.66585
C         37.42086       59.91657        7.69871
O         36.24078       59.67567        8.29304
O         38.02124       58.98814        7.18220
H         36.32931       61.42195        9.93077
H         37.87236       63.36661        8.18277
H         39.01745       61.22710        8.18419
H         38.24770       61.54338        6.60476
N         35.82967       62.92185        6.26104
C         34.56516       63.15689        5.57521
C         33.58518       61.98587        5.62865
O         32.51548       62.12137        5.05288
H         36.68991       62.90520        5.69407
H         34.77711       63.35626        4.50251
H         34.08505       64.06481        6.00131
N         33.86833       60.81417        6.27403
C         32.99508       59.64693        6.29368
C         32.55928       59.33877        7.72249
O         33.40444       59.00871        8.54141
C         33.79494       58.45336        5.72210
C         33.04436       57.14667        5.65973
N         33.71590       56.00955        5.36661
O         31.84462       57.09944        5.88681
H         34.76369       60.71170        6.75352
H         32.09626       59.82619        5.66459
H         34.68298       58.29875        6.37460
H         34.16845       58.69571        4.70335
H         34.73369       56.03013        5.20189
H         33.22675       55.10345        5.33469
N         31.24238       59.38944        8.07710
C         30.74481       59.05049        9.40705
C         29.96431       60.18848       10.02841
O         29.87226       61.24285        9.41517
H         30.54620       59.65465        7.36396
H         31.56660       58.75804       10.09468
H         30.05629       58.19863        9.28631
N         29.34739       60.08438       11.24544
C         29.37539       58.90804       12.12014
C         28.73290       57.69734       11.47296
O         27.71026       57.84085       10.81676
C         28.62860       59.16615       13.45858
C         29.28187       60.26352       14.30404
O         27.28486       59.49696       13.20806
H         28.83100       60.91566       11.57221
H         30.43096       58.66858       12.37899
H         28.68072       58.21928       14.05077
H         26.76313       59.22173       14.00725
H         28.73690       60.35950       15.26787
H         30.33731       59.99917       14.52529
H         29.25183       61.24583       13.79111
N         29.23660       56.45198       11.71866
C         28.62240       55.22034       11.23801
C         28.15388       54.42234       12.45873
O         29.01861       54.00083       13.21478
C         29.65424       54.41016       10.39060
C         30.21301       55.20853        9.18560
C         29.08665       53.06057        9.92630
C         29.16818       55.65083        8.15595
H         30.07111       56.36756       12.31919
H         27.77366       55.46207       10.58646
H         30.53053       54.18054       11.03909
H         30.97528       54.58797        8.66567
H         30.73990       56.10403        9.56461
H         29.85034       52.50324        9.34248
H         28.83300       52.43726       10.80276
H         28.17546       53.19189        9.30848
H         29.67405       56.20329        7.33765
H         28.64910       54.77831        7.71125
H         28.42091       56.33294        8.60742
N         26.84284       54.17848       12.78433
C         25.66186       54.70904       12.10851
C         24.50162       53.71756       12.16437
O         24.04522       53.37908       13.24852
C         25.26927       56.07282       12.71786
C         24.95743       56.02338       14.19224
O         23.84906       56.33891       14.59364
O         25.90489       55.66458       15.08019
H         26.67874       53.68641       13.67514
H         25.87207       54.88517       11.04091
H         24.38812       56.46450       12.16371
H         26.10420       56.78849       12.57625
N         23.98331       53.20351       11.01213
C         22.87543       52.25037       10.96838
C         22.71094       51.73937        9.54118
O         22.56118       52.56887        8.64933
C         21.52868       52.88764       11.39908
C         20.45849       51.81427       11.41746
C         19.56875       51.66225       10.33757
C         20.39138       50.90952       12.49129
C         18.64393       50.61175       10.32804
C         19.45604       49.86986       12.48337
C         18.58808       49.71662       11.39956
H         24.42978       53.47733       10.12243
H         23.11276       51.41349       11.65661
H         21.26678       53.68641       10.66924
H         21.57610       53.36967       12.39818
H         19.61243       52.33307        9.48881
H         21.07106       51.00501       13.32856
H         17.97734       50.48345        9.48459
H         19.41332       49.17464       13.31179
H         17.87618       48.90088       11.38793
N         22.68332       50.41089        9.22119
C         22.71813       49.29638       10.16307
C         24.11830       48.97406       10.67596
O         24.25454       47.97802       11.37477
C         22.10821       48.15652        9.33929
C         22.64810       48.43956        7.95602
C         22.46572       49.94931        7.86429
H         22.04833       49.44887       11.03041
H         22.28261       47.13442        9.73601
H         21.00471       48.31970        9.28954
H         23.73732       48.21116        7.97467
H         22.17380       47.87293        7.12718
H         23.19276       50.37439        7.13817
H         21.42760       50.22196        7.56812
N         25.19037       49.77541       10.41711
C         26.54285       49.52887       10.90887
C         27.52029       49.53490        9.74177
O         27.39511       50.41060        8.89605
C         26.94284       50.63670       11.90341
C         26.26781       50.52005       13.28165
C         26.84152       49.39824       14.11464
O         27.50543       49.68715       15.25121
O         26.71589       48.23226       13.77939
H         25.05291       50.63391        9.86571
H         26.58546       48.56532       11.42509
H         26.69027       51.61807       11.44509
H         28.04049       50.61603       12.08480
H         25.16587       50.42423       13.18530
H         26.48060       51.45512       13.83441
N         28.55676       48.65287        9.60507
C         28.95670       47.62355       10.54956
H         30.00138       47.82059       10.87023
H         28.35896       47.57549       11.47241
H         28.91851       46.63194       10.05478
H         29.15359       48.74395        8.76854
Ca        36.13913       58.38952       10.90636
O         33.04680       56.67143       11.39196
H         32.84118       56.01230       10.68384
H         32.54340       56.34928       12.18066
O         33.51321       61.06975       10.53445
H         33.57748       62.02813       10.76836
H         34.12916       60.96487        9.77047
O         34.68372       56.00107        8.64260
H         35.33953       55.80124        7.92865
H         34.43738       55.11357        9.00587
O         33.68159       59.55112       12.98040
H         33.81553       60.52342       13.10905
H         33.72974       59.17403       13.89384
O         37.60533       56.32675        9.33031
H         38.06963       57.19462        9.22559
H         38.17957       55.80993        9.94869

Ca 1.0



