%chk=apoCaM-CA-Ng.loop2.water2.frame892.chk
%nprocshared=20
%mem=10GB
%nosave
#b3lyp/svp scf=(tight,noincore,xqc) Test 
#IOP(5/87=12) Density=Current Pop=(MK,readradii) iop(6/33=2) iop(6/42=6)

apoCaM-CA-Ng.loop2.water2.frame892 

   -2  1 
C          5.43060       -5.01748       20.48891
C          5.36771       -3.53482       20.30223
O          4.64145       -2.88496       21.04297
H          5.99549       -5.26453       21.41261
H          4.39769       -5.41542       20.57359
H          5.92018       -5.49747       19.61766
N          6.12470       -2.92466       19.34033
C          6.08045       -1.49172       19.07280
C          7.15641       -0.77294       19.89678
O          7.91842        0.03040       19.37582
C          6.23098       -1.27987       17.54663
C          5.89999        0.09965       17.04757
O          5.29512        1.00466       17.84063
O          6.13298        0.38393       15.88334
H          6.76536       -3.50414       18.77774
H          5.08393       -1.11085       19.39440
H          5.56378       -1.98374       17.00161
H          7.27942       -1.53194       17.27488
N          7.22649       -1.02156       21.23315
C          8.10543       -0.37134       22.19228
C          9.50203       -0.99611       22.20041
O          9.58408       -2.21081       22.32107
C          7.47187       -0.54084       23.57770
H          6.55979       -1.69118       21.62324
H          8.09410        0.71854       22.01076
H          8.06535       -0.03026       24.35900
H          6.45340       -0.09248       23.55575
H          7.36937       -1.61654       23.83907
N         10.66056       -0.27453       22.10457
C         10.71081        1.17368       21.94981
C         11.95152        1.63197       21.20109
O         12.82615        0.83052       20.91434
C         10.50751        1.90689       23.29968
C         11.61679        1.73053       24.31913
O         12.26379        2.72009       24.61736
O         11.92778        0.56848       24.94741
H         11.54827       -0.80193       22.11612
H          9.90932        1.46415       21.24289
H          9.53181        1.64958       23.75389
H         10.45891        2.99329       23.06343
N         12.02692        2.91031       20.73799
C         13.10226        3.36880       19.87612
C         13.61506        4.72785       20.27459
O         13.33043        5.67384       19.55409
H         11.22700        3.54412       20.89249
H         12.66892        3.45825       18.85737
H         13.94760        2.65351       19.80902
N         14.38927        4.95769       21.36990
C         14.79213        3.95945       22.35027
C         16.07940        3.25124       21.91932
O         17.11297        3.89609       21.80216
C         14.96391        4.70085       23.69360
C         15.29385        3.85690       24.87807
N         15.56433        4.45369       26.05944
O         15.31903        2.64615       24.78621
H         14.67574        5.93682       21.53502
H         13.97446        3.22163       22.48260
H         14.01318        5.22780       23.93167
H         15.76885        5.45711       23.58155
H         15.56593        5.47973       26.13646
H         15.79374        3.90413       26.89409
N         16.07102        1.91247       21.64883
C         17.24239        1.15031       21.23173
C         18.16048        0.77840       22.37946
O         19.28295        0.36360       22.12736
H         15.17806        1.41426       21.69639
H         17.77589        1.69478       20.42480
H         16.90870        0.17853       20.80602
N         17.72290        0.84390       23.66570
C         18.48558        0.41196       24.83047
C         17.60324       -0.41676       25.75996
O         16.39330       -0.44690       25.58220
C         19.10347        1.64573       25.54747
C         20.21261        2.26386       24.70243
O         18.15253        2.64989       25.76975
H         16.76577        1.15931       23.82609
H         19.30650       -0.26989       24.52025
H         19.56746        1.33882       26.51195
H         17.48129        2.27242       26.37719
H         19.79633        2.67167       23.75705
H         20.68839        3.09646       25.26329
H         20.98689        1.50380       24.47013
N         18.15704       -1.12434       26.78590
C         17.36989       -1.93465       27.70994
C         17.35129       -1.19205       29.03891
O         18.39844       -0.98752       29.63691
C         17.93436       -3.38422       27.80266
C         17.12502       -4.21492       28.83015
C         17.95129       -4.06549       26.41560
C         17.80403       -5.53183       29.21342
H         19.17636       -1.06960       26.93326
H         16.32097       -2.01562       27.35048
H         18.98245       -3.31560       28.16756
H         16.08619       -4.40133       28.47567
H         17.06573       -3.63423       29.77080
H         18.32589       -5.10844       26.47869
H         16.93422       -4.08510       25.96783
H         18.62890       -3.52179       25.72236
H         17.74672       -6.28398       28.40121
H         18.86989       -5.35055       29.47284
H         17.30248       -5.94661       30.11380
N         16.17066       -0.69388       29.50638
C         16.03705        0.26894       30.59768
C         15.24295       -0.27979       31.76756
O         14.88881        0.50395       32.63882
C         15.32038        1.51762       30.02704
C         16.02940        1.93717       28.78123
O         17.13263        2.45004       28.88366
O         15.59469        1.57451       27.54635
H         15.31461       -0.90514       28.98111
H         17.03666        0.57987       30.97975
H         15.31303        2.35116       30.77111
H         14.26941        1.27101       29.77463
N         14.96647       -1.61168       31.89498
C         14.27474       -2.15304       33.06138
C         13.43254       -3.37684       32.67128
O         13.97885       -4.25920       32.02214
C         15.31156       -2.54732       34.13686
C         14.62337       -2.85529       35.44554
C         14.34256       -4.18216       35.80107
C         14.21848       -1.81194       36.30335
C         13.66227       -4.46490       36.98866
C         13.54390       -2.10082       37.49506
C         13.26375       -3.42680       37.83523
H         15.38077       -2.27043       31.21897
H         13.64335       -1.35657       33.50563
H         16.03498       -1.72175       34.31923
H         15.90904       -3.41586       33.78308
H         14.63126       -4.99398       35.14687
H         14.41963       -0.77772       36.04902
H         13.43820       -5.49049       37.24843
H         13.23153       -1.29800       38.15196
H         12.73481       -3.65096       38.75272
N         12.12873       -3.55121       33.07376
C         11.33493       -4.76105       32.83637
C         11.06818       -5.16118       31.39336
O         10.36696       -6.14614       31.19879
C          9.98738       -4.44018       33.50103
C         10.41049       -3.57555       34.65742
C         11.44148       -2.66721       33.99646
H         11.84219       -5.60136       33.35988
H          9.38036       -3.78951       32.82754
H          9.38264       -5.33240       33.77223
H          9.59129       -3.03731       35.17871
H         10.92811       -4.23875       35.38960
H         10.97535       -1.83812       33.42418
H         12.08043       -2.27516       34.80640
N         11.53112       -4.44337       30.33282
C         11.16473       -4.76793       28.95837
C         11.67726       -6.12592       28.49516
O         11.17829       -6.62157       27.49374
C         11.56763       -3.61399       28.02793
C         13.08505       -3.44115       27.86195
C         13.34399       -2.09923       27.25977
O         13.10108       -0.99291       27.98918
O         13.75313       -1.99850       26.11661
H         12.07955       -3.59277       30.50607
H         10.05261       -4.81189       28.93675
H         11.12644       -2.69324       28.47398
H         11.11783       -3.74445       27.01966
H         13.46506       -4.25593       27.20888
H         13.63999       -3.48164       28.82443
N         12.66170       -6.79139       29.16476
C         13.05740       -8.14077       28.81893
H         13.99320       -8.41066       29.35305
H         12.26021       -8.84492       29.14178
H         13.22460       -8.24636       27.72616
H         13.14925       -6.33803       29.95059
Ca        13.77946        1.06911       26.22520
O         12.11348        2.02346       27.89003
H         11.46089        1.72974       28.56776
H         11.83727        2.92724       27.59938
O         14.23713       -0.35236       23.62693
H         14.17926       -1.33742       23.60573
H         13.97275       -0.09575       22.71673

Ca 1.0



