%chk=apoCaM-CA-Ng.loop4.water5.frame507.chk
%nprocshared=20
%mem=10GB
%nosave
#b3lyp/svp scf=(tight,noincore,xqc) Test 
#IOP(5/87=12) Density=Current Pop=(MK,readradii) iop(6/33=2) iop(6/42=6)

apoCaM-CA-Ng.loop4.water5.frame507 

   -3  1 
C         83.60500       35.15379       43.46279
C         82.89242       33.84359       43.59172
O         82.36616       33.55189       44.65606
H         84.66874       34.97508       43.20163
H         83.12624       35.75743       42.66362
H         83.55532       35.72176       44.41488
N         82.83079       32.99708       42.52110
C         82.15736       31.69705       42.51538
C         80.64075       31.81515       42.68468
O         79.98102       30.78590       42.74360
C         82.72851       30.74773       43.60199
C         84.23227       30.71008       43.64625
O         84.90419       31.82088       44.00884
O         84.83741       29.67180       43.43387
H         83.30472       33.28270       41.65018
H         82.34856       31.22334       41.52617
H         82.32778       29.72527       43.42041
H         82.38555       31.06033       44.61028
N         80.02024       33.02711       42.80662
C         78.60778       33.17512       43.14815
C         77.69302       32.59478       42.06885
O         78.15834       32.39556       40.95521
C         78.26726       34.67254       43.48058
C         78.49252       35.61187       42.25954
C         79.06644       35.11875       44.72414
C         78.20055       37.08579       42.54841
H         80.58230       33.87643       42.72575
H         78.46813       32.56836       44.06900
H         77.19766       34.75436       43.75920
H         77.82225       35.28596       41.43572
H         79.53541       35.55897       41.88857
H         78.87594       34.42226       45.56766
H         80.15717       35.14586       44.53062
H         78.74928       36.12420       45.06573
H         78.91551       37.49269       43.29385
H         78.33077       37.67589       41.61670
H         77.16225       37.21640       42.91668
N         76.39107       32.23746       42.30449
C         75.71410       32.34494       43.59721
C         75.39968       30.99725       44.21961
O         75.01001       30.99441       45.37832
C         74.43543       33.20739       43.48027
C         73.33517       32.63259       42.61432
O         72.18738       33.32125       42.47204
O         73.45316       31.55373       42.05462
H         75.86629       31.82971       41.51584
H         76.36599       32.83916       44.33400
H         74.71510       34.20445       43.07869
H         74.01209       33.35547       44.49780
N         75.53038       29.81526       43.54822
C         75.18687       28.54464       44.16425
C         73.72594       28.52622       44.55050
O         72.88737       28.64563       43.66793
H         75.86231       29.79999       42.57352
H         75.83670       28.38438       45.05075
H         75.37530       27.71531       43.44767
N         73.35177       28.40039       45.85913
C         71.95610       28.40886       46.29339
C         71.68136       29.57844       47.22692
O         71.04115       29.39637       48.25365
C         71.58907       27.04456       46.93281
C         72.35020       26.68435       48.19376
O         73.18670       27.43071       48.67772
O         72.08715       25.51546       48.80641
H         74.09056       28.30992       46.57122
H         71.29166       28.55274       45.41458
H         71.76890       26.24637       46.18197
H         70.50532       27.04452       47.17890
N         72.14934       30.82409       46.93465
C         71.91993       31.97951       47.78802
C         72.49543       31.86600       49.19168
O         72.26919       32.78979       49.95970
H         72.67426       30.96913       46.06225
H         70.82454       32.14276       47.86728
H         72.36839       32.87933       47.31107
N         73.24461       30.79816       49.60954
C         73.79507       30.66110       50.95465
C         74.74652       31.80649       51.21567
O         74.54750       32.57054       52.15145
C         72.68211       30.55173       52.02900
C         71.72601       29.37686       51.76428
C         70.64463       29.24351       52.81125
N         69.70843       28.27475       52.68813
O         70.60048       30.00479       53.76742
H         73.47407       30.04389       48.95139
H         74.38734       29.71910       51.00241
H         72.09107       31.49090       52.07250
H         73.16435       30.40268       53.02120
H         72.30418       28.42835       51.72723
H         71.22865       29.53149       50.78662
H         69.72485       27.62739       51.88635
H         68.96170       28.17463       53.39183
N         75.80802       31.99041       50.38166
C         76.73659       33.10289       50.51417
C         78.11830       32.59246       50.86914
O         79.09685       32.96901       50.23742
C         76.68989       34.02172       49.25245
C         76.95870       33.27191       47.93212
C         75.33420       34.73695       49.16039
H         75.95789       31.31182       49.62002
H         76.45823       33.73819       51.38341
H         77.46352       34.81239       49.37162
H         77.94288       32.76251       47.94855
H         76.16883       32.51891       47.72577
H         76.95698       33.98898       47.08386
H         74.50836       34.00828       49.03030
H         75.14925       35.32770       50.08301
H         75.32579       35.43808       48.29860
N         78.27060       31.75743       51.93781
C         79.57773       31.41783       52.48007
C         80.09024       32.63162       53.22355
O         79.44125       33.08964       54.15510
C         79.50391       30.18918       53.40369
C         79.16680       28.94569       52.61555
N         80.00902       28.48856       51.65579
O         78.13279       28.33998       52.85170
H         77.42943       31.42366       52.43367
H         80.26922       31.16188       51.64811
H         78.74886       30.36606       54.20135
H         80.48964       30.02136       53.88971
H         80.89646       28.97251       51.45313
H         79.78293       27.63942       51.11747
N         81.22810       33.24201       52.80762
C         81.67231       34.53941       53.30853
C         82.34719       35.32156       52.18970
O         82.38585       34.83018       51.06751
C         82.51931       34.40356       54.59218
C         83.84502       33.70801       54.40576
C         85.04068       34.42778       54.57601
C         83.90846       32.33959       54.09462
C         86.27593       33.79277       54.43044
C         85.14618       31.70490       53.95420
C         86.33272       32.42703       54.12062
O         87.51806       31.79926       53.98618
H         81.72267       32.81802       52.00804
H         80.77893       35.14597       53.58061
H         81.93798       33.87282       55.37670
H         82.69423       35.42801       54.98386
H         85.01941       35.48269       54.82120
H         83.00492       31.75686       53.97617
H         87.18685       34.36283       54.56355
H         85.18222       30.64826       53.72177
H         88.36037       32.26233       54.10002
N         82.87994       36.55998       52.39924
C         83.42534       37.35393       51.30228
C         84.93935       37.45313       51.40613
O         85.46334       37.24951       52.49270
C         82.79577       38.76216       51.30683
C         81.26204       38.72266       51.22075
C         80.68548       40.10730       51.30293
O         79.85614       40.43257       52.31368
O         80.96218       40.94308       50.45741
H         82.89363       36.95903       53.34964
H         83.17831       36.84719       50.35279
H         83.19562       39.35571       50.45608
H         83.08402       39.27458       52.25229
H         80.85527       38.12625       52.06610
H         80.94546       38.24596       50.26863
N         85.74683       37.73477       50.33697
C         85.30409       37.90599       48.95303
C         85.62237       39.30574       48.46599
O         86.39337       40.01321       49.10077
C         85.95985       36.78622       48.10707
C         85.57247       36.77055       46.62260
C         86.18342       35.58449       45.92775
O         86.96152       35.74639       45.00112
O         85.86315       34.33452       46.31531
H         86.76352       37.78914       50.51061
H         84.21092       37.80584       48.86341
H         85.64823       35.81536       48.55480
H         87.06725       36.86139       48.18699
H         85.93353       37.69922       46.13287
H         84.46845       36.70861       46.52123
N         84.98489       39.80349       47.37039
C         85.20316       41.15088       46.89633
H         86.26318       41.27872       46.59377
H         84.55103       41.35151       46.01965
H         84.95099       41.87844       47.69731
H         84.29371       39.22187       46.87319
Ca        87.11953       31.93698       44.39192
O         88.05433       30.89814       41.84018
H         88.23732       30.83488       40.87013
H         87.07899       30.74583       41.91873
O         89.36629       33.63623       43.20380
H         89.33381       34.53697       42.79439
H         90.29193       33.32266       43.04554
O         89.11280       33.49606       46.46142
H         89.30601       33.13302       47.36211
H         89.73273       34.26172       46.36328
O         87.21374       30.98165       47.29576
H         87.83397       30.27354       47.60255
H         86.43091       30.49032       46.94025
O         89.67667       30.46150       44.78263
H         89.92506       30.82322       45.67013
H         90.34200       30.84939       44.16054

Ca 1.0



