%chk=apoCaM-CA-Ng.loop2.water4.frame721.chk
%nprocshared=20
%mem=10GB
%nosave
#b3lyp/svp scf=(tight,noincore,xqc) Test 
#IOP(5/87=12) Density=Current Pop=(MK,readradii) iop(6/33=2) iop(6/42=6)

apoCaM-CA-Ng.loop2.water4.frame721 

   -2  1 
C         75.71448      111.98969       -6.67505
C         76.46986      113.27410       -6.86837
O         76.13844      114.25661       -6.22054
H         74.64574      112.14187       -6.93515
H         76.11902      111.17890       -7.31738
H         75.78868      111.66841       -5.61512
N         77.49767      113.34472       -7.76036
C         78.25833      114.56577       -8.00183
C         79.01343      114.98084       -6.74982
O         79.83866      114.21628       -6.26796
C         79.24157      114.35051       -9.17137
C         80.03577      115.58929       -9.48185
O         79.46972      116.61912       -9.81241
O         81.37969      115.56469       -9.39922
H         77.73030      112.49958       -8.30528
H         77.54754      115.36635       -8.30779
H         78.66925      114.06310      -10.08043
H         79.93845      113.51949       -8.92481
N         78.78505      116.19930       -6.18051
C         79.49329      116.66847       -4.99239
C         79.21258      115.75126       -3.80994
O         78.08870      115.27639       -3.71518
C         79.06099      118.09736       -4.64699
H         78.08857      116.82147       -6.61978
H         80.57293      116.69036       -5.24038
H         79.62589      118.46767       -3.76496
H         79.27231      118.77300       -5.50374
H         77.97360      118.13614       -4.42153
N         80.13970      115.41406       -2.86219
C         81.47967      115.97737       -2.72413
C         82.56016      114.93847       -2.98800
O         82.59837      113.91394       -2.32679
C         81.64665      116.63721       -1.32947
C         81.48011      115.76415       -0.10209
O         81.21208      114.57638       -0.17750
O         81.62607      116.32140        1.11449
H         79.84331      114.73225       -2.15143
H         81.63213      116.80770       -3.43628
H         80.90336      117.45951       -1.24960
H         82.66074      117.09096       -1.28248
N         83.50228      115.16668       -3.94755
C         84.63157      114.26446       -4.15613
C         85.51992      114.69535       -5.31649
O         85.16873      115.63015       -6.02030
H         83.42531      116.02852       -4.50516
H         84.25327      113.24672       -4.35872
H         85.23310      114.24915       -3.22257
N         86.71528      114.09354       -5.59947
C         87.34450      113.03071       -4.81419
C         86.57395      111.71552       -4.83922
O         85.60300      111.59347       -5.57469
C         88.79115      112.77709       -5.32459
C         88.83674      112.14888       -6.70583
N         89.37724      110.92027       -6.88492
O         88.38176      112.74800       -7.66823
H         87.24443      114.49334       -6.39020
H         87.42015      113.39189       -3.76493
H         89.31249      112.10902       -4.60778
H         89.35974      113.73261       -5.33575
H         89.76484      110.38950       -6.09167
H         89.40152      110.49218       -7.82252
N         87.00463      110.66263       -4.08357
C         86.40918      109.33518       -4.12728
C         85.91668      108.83521       -2.78237
O         85.47261      107.69753       -2.73149
H         87.83173      110.78869       -3.47918
H         87.18978      108.63100       -4.48721
H         85.56052      109.29397       -4.84216
N         85.95766      109.60068       -1.65263
C         85.49551      109.12463       -0.34657
C         83.99521      108.71134       -0.44532
O         83.19011      109.72225       -0.98805
C         85.85015      110.19737        0.73441
C         85.48473      109.82719        2.18117
O         87.24099      110.40480        0.68589
H         86.33511      110.55723       -1.71616
H         86.07116      108.20929       -0.08154
H         85.32812      111.14058        0.46884
H         87.42450      111.28351        1.11053
H         84.39251      109.79262        2.34139
H         85.94444      108.85730        2.46698
H         85.86111      110.61091        2.87242
N         83.45973      108.21287        0.82916
C         82.05353      107.76467        0.82625
C         81.47239      108.15048        2.18287
O         81.97105      107.66370        3.18851
C         81.94453      106.22668        0.54253
C         80.47586      105.74341        0.66625
C         82.52323      105.89355       -0.84864
C         80.28217      104.24247        0.43959
H         84.08828      107.49216        1.25574
H         81.48041      108.30726        0.04734
H         82.54469      105.68019        1.30408
H         79.84159      106.28460       -0.05547
H         80.10724      105.96473        1.69048
H         83.58833      106.18841       -0.91991
H         82.51203      104.80316       -1.04217
H         81.94768      106.41093       -1.64628
H         80.91165      103.65788        1.14277
H         79.21649      103.98186        0.61111
H         80.52302      103.95593       -0.60412
N         80.43742      109.04544        2.28688
C         79.89908      109.50668        3.56413
C         78.43354      109.12851        3.80581
O         77.99871      109.35393        4.92868
C         79.99070      111.05377        3.67139
C         81.37307      111.63440        3.84495
O         82.31676      111.63452        2.88569
O         81.63944      112.19223        4.89735
H         80.03621      109.45006        1.43203
H         80.46440      109.05034        4.40581
H         79.43353      111.35607        4.58655
H         79.47558      111.53404        2.81115
N         77.58093      108.64102        2.85130
C         76.15267      108.48139        3.15120
C         75.30857      108.43825        1.87557
O         74.67941      107.42594        1.60488
C         75.88043      107.26171        4.07373
C         74.49242      107.38967        4.66896
C         74.23446      108.42680        5.58612
C         73.44871      106.51814        4.31354
C         72.95980      108.59851        6.12653
C         72.16778      106.70025        4.85225
C         71.92445      107.73972        5.75594
H         77.91397      108.51046        1.88674
H         75.82770      109.38811        3.69990
H         76.59613      107.21401        4.92099
H         76.00743      106.32412        3.48796
H         75.02462      109.10610        5.88227
H         73.61690      105.71557        3.60696
H         72.77620      109.40245        6.82811
H         71.35959      106.04025        4.56567
H         70.93441      107.88223        6.16963
N         75.20627      109.52657        1.05478
C         74.43074      109.57988       -0.17909
C         74.74732      108.47328       -1.17083
O         73.81984      107.88523       -1.70852
C         74.81832      110.93882       -0.77636
C         74.99977      111.77360        0.46595
C         75.78347      110.82109        1.36125
H         73.34647      109.57067        0.07858
H         75.82046      110.87629       -1.25928
H         74.09009      111.33562       -1.51554
H         75.47230      112.76699        0.32138
H         73.98778      111.92367        0.91213
H         76.86595      110.78971        1.12892
H         75.61555      111.14881        2.40846
N         76.04069      108.14269       -1.46291
C         76.40960      107.15891       -2.48365
C         75.79901      105.78012       -2.24220
O         75.81409      104.97259       -3.16202
C         77.94492      106.94535       -2.65239
C         78.82764      108.17877       -2.93017
C         79.26931      108.93790       -1.70731
O         80.01392      109.89418       -1.83134
O         78.94621      108.52390       -0.47211
H         76.76217      108.65445       -0.95901
H         76.00133      107.54999       -3.44209
H         78.05280      106.28924       -3.54456
H         78.36628      106.37922       -1.79555
H         78.32860      108.84332       -3.66599
H         79.77652      107.81326       -3.38108
N         75.27553      105.41882       -1.03888
C         74.68411      104.12000       -0.81043
H         73.81351      103.97903       -1.48546
H         75.43407      103.32203       -0.99342
H         74.33306      104.04631        0.24123
H         75.30709      106.06985       -0.24910
Ca        82.43106      110.93001        0.76668
O         79.46732      112.33531       -2.88082
H         78.53658      112.64733       -2.75336
H         79.65075      112.47028       -3.84356
O         82.37560      110.84167       -3.58573
H         82.75759      111.42636       -4.28594
H         82.82746      109.97069       -3.71805
O         78.86807      112.43912        0.25407
H         78.06186      112.82733       -0.16958
H         78.82321      111.47508        0.03476
O         84.10820      113.36345       -0.10408
H         84.31829      113.33140        0.86225
H         84.95499      113.63308       -0.54040

Ca 1.0



