%chk=apoCaM-CA-Ng.loop4.water6.frame524.chk
%nprocshared=20
%mem=10GB
%nosave
#b3lyp/svp scf=(tight,noincore,xqc) Test 
#IOP(5/87=12) Density=Current Pop=(MK,readradii) iop(6/33=2) iop(6/42=6)

apoCaM-CA-Ng.loop4.water6.frame524 

   -3  1 
C         92.96098      -14.32470       59.88499
C         92.74238      -15.73846       60.32887
O         91.87393      -15.95443       61.15817
H         93.77664      -14.25440       59.13610
H         92.02498      -13.93467       59.43267
H         93.22404      -13.69900       60.76269
N         93.49146      -16.75949       59.81263
C         93.35670      -18.17068       60.18615
C         92.01779      -18.78147       59.75165
O         91.77503      -19.93919       60.06423
C         93.57627      -18.36083       61.70813
C         94.76060      -17.58387       62.21063
O         94.59503      -16.70611       63.04256
O         95.99542      -17.80351       61.72897
H         94.22632      -16.52806       59.12715
H         94.16282      -18.73493       59.66528
H         93.70144      -19.44051       61.94124
H         92.68852      -18.00832       62.26622
N         91.09563      -18.06182       59.04410
C         89.75888      -18.54676       58.70376
C         89.85763      -19.71628       57.72168
O         90.54655      -19.55572       56.72391
C         88.89691      -17.38903       58.10566
C         88.71206      -16.27005       59.17357
C         87.52086      -17.90961       57.63517
C         88.00605      -15.02041       58.65162
H         91.33679      -17.10999       58.74745
H         89.27541      -18.82573       59.65207
H         89.42929      -16.97604       57.21969
H         89.69581      -15.92615       59.54712
H         88.14905      -16.67150       60.04534
H         86.94667      -18.32946       58.48815
H         86.92681      -17.10514       57.16012
H         87.63489      -18.69542       56.86027
H         86.96645      -15.23636       58.33749
H         87.95956      -14.26465       59.46409
H         88.57444      -14.59099       57.79979
N         89.21762      -20.91879       57.88297
C         88.27436      -21.25559       58.95153
C         88.87245      -22.22324       59.95628
O         88.26601      -22.41642       60.99951
C         86.92961      -21.75135       58.36737
C         86.98314      -23.05430       57.60477
O         88.12647      -23.75486       57.47553
O         85.96004      -23.49152       57.10287
H         89.40745      -21.64296       57.17338
H         88.00693      -20.36261       59.53066
H         86.53515      -20.96510       57.68667
H         86.20030      -21.87771       59.19715
N         90.06964      -22.83948       59.73554
C         90.72616      -23.69884       60.70152
C         89.89453      -24.90347       61.07911
O         89.48847      -25.65803       60.20683
H         90.57218      -22.68561       58.85078
H         90.98279      -23.09910       61.60175
H         91.67889      -24.06251       60.26057
N         89.65740      -25.16701       62.39485
C         88.94857      -26.34890       62.88262
C         87.44386      -26.35478       62.60282
O         86.79613      -27.30290       63.02689
C         89.23229      -26.56011       64.39756
C         88.85010      -25.43988       65.33472
O         88.39904      -24.38421       64.92475
O         89.05332      -25.59676       66.65628
H         90.08934      -24.53575       63.08598
H         89.37886      -27.24623       62.38467
H         90.32320      -26.72956       64.52614
H         88.71406      -27.48533       64.73084
N         86.80414      -25.37607       61.89576
C         85.36331      -25.39215       61.67941
C         84.57745      -25.07490       62.93891
O         83.35878      -25.14666       62.89959
H         87.33531      -24.60630       61.47858
H         85.06766      -26.38090       61.26742
H         85.09061      -24.61652       60.93072
N         85.20613      -24.64947       64.07195
C         84.54945      -24.22330       65.29947
C         83.65785      -23.02173       65.03424
O         82.59456      -22.89400       65.62614
C         83.85773      -25.40363       66.01084
C         84.87188      -26.52985       66.29696
C         84.26851      -27.73891       66.96384
N         85.05364      -28.80397       67.24690
O         83.07898      -27.77284       67.24400
H         86.22285      -24.54941       64.06535
H         85.34972      -23.85292       65.98120
H         83.03556      -25.79486       65.37490
H         83.42450      -25.05267       66.97341
H         85.68353      -26.13503       66.94681
H         85.32189      -26.87211       65.34124
H         86.05771      -28.79250       67.01239
H         84.65909      -29.64342       67.69591
N         84.06802      -22.08649       64.13183
C         83.37419      -20.84421       63.83031
C         84.31163      -19.65319       64.00617
O         83.88861      -18.54487       63.71613
C         82.81955      -20.86816       62.37237
C         83.91149      -21.09711       61.30920
C         81.71149      -21.91763       62.22429
H         84.94001      -22.26611       63.61165
H         82.50987      -20.69134       64.51473
H         82.34783      -19.88129       62.16647
H         84.37777      -22.09852       61.41610
H         83.46922      -21.03681       60.29211
H         84.70316      -20.32216       61.38181
H         81.28139      -21.87819       61.20063
H         82.10164      -22.93799       62.40646
H         80.89335      -21.71200       62.94745
N         85.59971      -19.80254       64.45188
C         86.56055      -18.70814       64.47933
C         86.95098      -18.41361       65.92550
O         86.55981      -19.14868       66.81733
C         87.76256      -19.14497       63.60661
C         88.70486      -18.07023       63.12930
N         89.82954      -18.42794       62.47602
O         88.45278      -16.88599       63.27710
H         85.94768      -20.71992       64.75841
H         86.09498      -17.79800       64.04658
H         87.37964      -19.61367       62.67279
H         88.32685      -19.92575       64.16308
H         90.06419      -19.41984       62.32559
H         90.46673      -17.70532       62.12509
N         87.66105      -17.29038       66.22927
C         87.96644      -16.88670       67.60063
C         88.39980      -15.42615       67.65471
O         88.59674      -14.80689       66.62170
C         89.00245      -17.82192       68.27399
C         90.40612      -17.73064       67.70507
C         90.68610      -18.08016       66.37146
C         91.46467      -17.31115       68.53165
C         91.99327      -18.00365       65.87629
C         92.76928      -17.24323       68.03731
C         93.03981      -17.58601       66.71121
O         94.30722      -17.51711       66.25740
H         87.89050      -16.65809       65.46495
H         87.01227      -16.93930       68.16976
H         88.66169      -18.87665       68.21930
H         89.03294      -17.56150       69.35429
H         89.90203      -18.41994       65.71322
H         91.28555      -17.04147       69.56489
H         92.19168      -18.27581       64.84702
H         93.57379      -16.92584       68.68888
H         94.54578      -17.76714       65.35491
N         88.50326      -14.79180       68.85738
C         88.80768      -13.37218       68.96230
C         90.05885      -13.19104       69.80726
O         89.93510      -13.08780       71.01901
C         87.59057      -12.61570       69.53541
C         86.36152      -12.76753       68.61875
C         85.18738      -11.98998       69.13537
O         84.04375      -12.62644       69.45296
O         85.25457      -10.77646       69.24930
H         88.30785      -15.31464       69.72280
H         88.96972      -12.92046       67.96943
H         87.85094      -11.53672       69.61374
H         87.34128      -12.99730       70.54999
H         86.07825      -13.84038       68.54904
H         86.60356      -12.40309       67.59650
N         91.32127      -13.22474       69.27851
C         91.62291      -13.37869       67.85459
C         91.18511      -12.16908       67.03872
O         90.77581      -11.16437       67.60720
C         93.13183      -13.64623       67.62558
C         94.05245      -12.48439       68.04510
C         95.48515      -12.80629       67.73816
O         95.83919      -12.98306       66.58392
O         96.39064      -12.88431       68.73178
H         92.10314      -13.18258       69.94901
H         91.08067      -14.27789       67.49142
H         93.29491      -13.86357       66.54749
H         93.42374      -14.55313       68.19362
H         93.95595      -12.29379       69.13316
H         93.78171      -11.55492       67.50141
N         91.24643      -12.20573       65.67938
C         90.84706      -11.08370       64.85887
H         89.78016      -10.83684       65.04532
H         91.47967      -10.20072       65.09069
H         90.97070      -11.33791       63.78456
H         91.57800      -13.05990       65.20644
Ca        97.60088      -16.41017       62.49155
O         97.09379      -15.30303       65.35945
H         96.26562      -15.11985       64.84852
H         96.77493      -15.64095       66.23388
O         97.85752      -18.34935       64.90112
H         97.42837      -18.13318       65.76666
H         97.12839      -18.73423       64.35284
O         97.72611      -16.20224       59.46099
H         96.81173      -15.91337       59.21474
H         98.26772      -15.37447       59.42071
O         98.87505      -13.52466       61.81074
H         98.79968      -13.25678       60.86053
H         98.30855      -12.87438       62.29712
O         95.55240      -13.84514       62.24251
H         95.33259      -13.16397       62.92669
H         95.71594      -13.32452       61.41624
O        100.28837      -17.13527       61.90594
H        101.08535      -17.61269       62.24609
H        100.24775      -17.36221       60.94304

Ca 1.0



