%chk=apoCaM-CA-Ng.loop3.water3.frame825.chk
%nprocshared=20
%mem=10GB
%nosave
#b3lyp/svp scf=(tight,noincore,xqc) Test 
#IOP(5/87=12) Density=Current Pop=(MK,readradii) iop(6/33=2) iop(6/42=6)

apoCaM-CA-Ng.loop3.water3.frame825 

   0  1 
C         79.88689      102.15939       67.93447
C         80.70708      102.96849       66.97955
O         81.62205      102.42252       66.38082
H         78.83036      102.15253       67.59471
H         80.25440      101.11073       67.97164
H         79.94891      102.59865       68.95094
N         80.44236      104.29393       66.79697
C         81.17106      105.12508       65.84449
C         82.05068      106.10526       66.60182
O         81.78404      106.35963       67.76937
C         80.14760      105.80349       64.90199
C         80.68817      106.37532       63.61754
O         79.92054      106.91868       62.84108
O         81.97720      106.23938       63.26803
H         79.69679      104.73174       67.36079
H         81.83345      104.48005       65.24824
H         79.60301      106.58889       65.47056
H         79.40491      105.04114       64.58584
N         83.17603      106.62218       66.02897
C         84.11761      107.47865       66.73754
C         84.16214      108.87840       66.13624
O         84.69320      109.75948       66.79779
C         85.48619      106.76416       66.74829
C         86.59059      107.43789       67.57308
C         87.85663      106.56594       67.54090
C         88.99868      107.17732       68.35986
N         90.17658      106.30866       68.33280
H         83.41644      106.35338       65.06901
H         83.78118      107.60538       67.78989
H         85.84252      106.64587       65.70541
H         85.32238      105.74722       67.17031
H         86.24732      107.55201       68.62432
H         86.82664      108.43897       67.15493
H         88.19354      106.44289       66.48744
H         87.61727      105.56160       67.95520
H         88.66984      107.31297       69.41396
H         89.26475      108.17301       67.94089
H         89.94720      105.37910       68.75481
H         90.50538      106.17466       67.34878
H         90.94374      106.75044       68.88880
N         83.60563      109.17832       64.91922
C         83.52445      110.54127       64.40102
C         82.09460      110.95636       64.06915
O         81.91559      112.12460       63.75054
C         84.46225      110.73210       63.19095
C         84.12078      109.88102       62.00011
O         83.04496      110.00454       61.43906
O         85.02641      109.01299       61.51238
H         83.23111      108.42586       64.32846
H         83.87631      111.25546       65.17752
H         85.50052      110.50303       63.51446
H         84.43670      111.79778       62.87424
N         81.03128      110.09201       64.11363
C         79.66889      110.52555       63.85545
C         79.04059      109.85775       62.65535
O         77.96204      109.30017       62.80526
H         81.16281      109.10424       64.36540
H         79.62066      111.61779       63.66344
H         79.05433      110.33323       64.76271
N         79.60069      109.96602       61.41200
C         78.85904      109.65340       60.18809
C         79.48469      108.56945       59.31636
O         80.58297      108.10423       59.57916
C         78.76936      110.95324       59.35198
C         78.20893      112.11339       60.13626
N         76.94846      112.07937       60.62317
O         78.90588      113.09855       60.33141
H         80.52391      110.41394       61.32038
H         77.83400      109.30738       60.44259
H         78.14692      110.80516       58.44538
H         79.79812      111.22109       59.01694
H         76.34419      111.26101       60.46420
H         76.57600      112.87785       61.15813
N         78.79381      108.15685       58.21134
C         79.27201      107.25216       57.17657
C         79.57977      105.85501       57.65466
O         78.74955      105.24774       58.31685
H         77.85520      108.55558       58.05540
H         80.15220      107.69900       56.66731
H         78.46613      107.15671       56.41618
N         80.74161      105.25008       57.26787
C         81.10112      103.87843       57.63109
C         81.31405      103.75755       59.12781
O         81.22446      104.75735       59.82256
C         82.37227      103.44215       56.86382
C         82.12658      103.36217       55.37253
C         81.23630      102.40369       54.85436
C         82.78960      104.22684       54.48543
C         81.01403      102.31260       53.47706
C         82.56051      104.13795       53.10738
C         81.67544      103.18133       52.59821
O         81.47123      103.10449       51.26723
H         81.37865      105.77698       56.65146
H         80.26443      103.20058       57.35331
H         82.71476      102.43767       57.19095
H         83.18723      104.16299       57.09700
H         80.72036      101.71881       55.51560
H         83.47969      104.97290       54.85826
H         80.32971      101.56521       53.09454
H         83.07375      104.81225       52.43339
H         80.87192      102.45343       50.87448
N         81.55054      102.53132       59.69334
C         81.65087      102.28814       61.13296
C         82.89440      102.95604       61.71830
O         83.09044      104.14426       61.50960
C         80.32866      102.70473       61.85506
C         80.33646      102.37794       63.36783
C         79.09705      102.07141       61.17557
C         80.42500      100.89115       63.72836
H         81.59655      101.70713       59.07665
H         81.75811      101.19105       61.27399
H         80.20665      103.80556       61.78235
H         79.40360      102.77881       63.82007
H         81.19055      102.90105       63.83279
H         79.15690      100.96359       61.18139
H         78.16640      102.38801       61.69257
H         79.01372      102.39917       60.11856
H         81.36827      100.44055       63.36538
H         80.40030      100.77951       64.83114
H         79.56286      100.32635       63.32245
N         83.76040      102.26040       62.51282
C         84.95423      102.86342       63.10581
C         86.20271      101.99430       63.00440
O         87.24193      102.43858       63.46887
C         84.68862      103.16737       64.58592
O         84.42445      101.98246       65.28691
H         83.50545      101.29792       62.78062
H         85.18009      103.82810       62.60565
H         83.82135      103.84716       64.65468
H         85.57313      103.68409       65.02465
H         84.41933      102.22621       66.24868
N         86.18209      100.73112       62.48130
C         87.34385       99.84847       62.55889
C         88.51688      100.37280       61.74019
O         88.30047      101.24202       60.90596
C         86.94092       98.45052       62.08654
H         85.30975      100.35306       62.09273
H         87.63505       99.79442       63.63048
H         86.62251       98.48116       61.02274
H         87.77103       97.73979       62.18725
H         86.09779       98.07354       62.70381
N         89.80976       99.96372       61.92769
C         90.27700       99.06763       62.98408
C         91.47747       98.25781       62.50004
O         92.42574       98.87264       62.03182
C         90.71194       99.91017       64.18719
H         90.53159      100.45572       61.37705
H         89.46718       98.42024       63.35139
H         89.85330      100.50368       64.56696
H         91.06393       99.24707       65.00741
H         91.53028      100.60952       63.91265
N         91.58577       96.89916       62.61354
C         90.59203       96.01926       63.21984
C         89.45692       95.68472       62.26113
O         88.53410       94.99949       62.68109
C         91.25778       94.70456       63.69143
C         92.32038       94.95654       64.77553
C         92.92861       93.66810       65.24781
O         93.54072       92.95375       64.46974
O         92.81318       93.30119       66.53852
H         92.47960       96.47908       62.31072
H         90.18001       96.49951       64.13368
H         91.71485       94.18313       62.82072
H         90.48127       94.03812       64.12927
H         91.84308       95.46981       65.63891
H         93.13238       95.60726       64.38854
N         89.44533       96.10783       60.96349
C         88.37041       95.75915       60.05734
H         87.40123       96.13948       60.44042
H         88.55550       96.20663       59.05811
H         88.30778       94.65577       59.94959
H         90.21340       96.68273       60.59096
Ca        82.71598      107.03993       61.29492
O         85.36154      105.66765       60.20497
H         86.14515      105.37502       60.73389
H         85.15540      104.89741       59.61811
O         83.38339      107.08050       58.26700
H         84.34208      107.32603       58.24459
H         83.02507      107.40876       57.40497
O         85.30531      106.35925       63.15757
H         86.19155      105.97214       63.37000
H         85.37784      107.30644       63.43195

Ca 1.0



