%chk=apoCaM-CA-Ng.loop2.water4.frame489.chk
%nprocshared=20
%mem=10GB
%nosave
#b3lyp/svp scf=(tight,noincore,xqc) Test 
#IOP(5/87=12) Density=Current Pop=(MK,readradii) iop(6/33=2) iop(6/42=6)

apoCaM-CA-Ng.loop2.water4.frame489 

   -2  1 
C         73.15294       52.93559       84.27925
C         74.36692       52.60243       83.46570
O         74.26261       51.81837       82.53258
H         72.26828       52.36963       83.91616
H         73.33153       52.66761       85.34247
H         72.94289       54.02229       84.20528
N         75.57383       53.13964       83.79671
C         76.80915       52.82229       83.09569
C         77.63573       51.93206       83.99427
O         77.99100       52.34964       85.08840
C         77.55391       54.11686       82.71565
C         78.83657       53.83474       81.98126
O         78.81900       53.24031       80.91510
O         80.01228       54.24396       82.49551
H         75.62790       53.75246       84.62618
H         76.58721       52.27010       82.15564
H         77.78094       54.69886       83.63620
H         76.90398       54.74132       82.06525
N         77.94333       50.66537       83.59661
C         78.64812       49.70293       84.42942
C         77.79116       48.47016       84.64191
O         77.00583       48.11695       83.77021
C         79.96634       49.30813       83.77096
H         77.64412       50.35449       82.65865
H         78.89600       50.14275       85.42115
H         80.50980       48.58469       84.41673
H         79.78502       48.84275       82.77899
H         80.60326       50.20833       83.63871
N         77.88623       47.76911       85.80322
C         77.07165       46.59059       86.10322
C         77.39849       45.42294       85.18307
O         78.25551       45.55201       84.32121
C         77.20808       46.23485       87.60784
C         76.62865       47.34094       88.46109
O         76.16015       48.45069       87.85633
O         76.51381       47.20068       89.66740
H         78.54082       48.11528       86.52331
H         75.99933       46.83562       85.92611
H         78.26708       46.03559       87.87979
H         76.61320       45.32684       87.83281
N         76.71594       44.24559       85.30608
C         76.91451       43.10994       84.41872
C         75.62275       42.58432       83.81688
O         75.71642       41.62965       83.05570
H         76.04089       44.13641       86.07427
H         77.36565       42.28178       85.00529
H         77.61356       43.36192       83.59307
N         74.38904       43.08982       84.13003
C         73.14292       42.50821       83.63937
C         72.30725       43.56004       82.93236
O         71.93840       44.55466       83.54397
C         72.35803       41.89229       84.81311
C         73.16564       40.83384       85.52967
N         73.59247       39.72280       84.88262
O         73.43791       40.98449       86.71120
H         74.30367       43.87926       84.78584
H         73.35267       41.68604       82.92190
H         71.42024       41.42965       84.43519
H         72.08368       42.69374       85.53475
H         73.37243       39.56854       83.88838
H         74.14820       39.01028       85.37904
N         71.97871       43.39645       81.62225
C         71.20899       44.35006       80.84068
C         69.75488       44.46445       81.25352
O         69.33446       43.88893       82.24736
H         72.32557       42.56092       81.12593
H         71.20673       43.98951       79.78880
H         71.69694       45.34841       80.85651
N         68.91031       45.16445       80.44464
C         67.46912       45.27330       80.65905
C         67.14443       46.13858       81.86797
O         66.40762       45.67473       82.72714
C         66.71833       45.71376       79.36619
C         67.09866       47.08043       78.77994
O         66.84373       44.72152       78.37473
H         69.31680       45.57342       79.59138
H         67.06169       44.25429       80.85384
H         65.63714       45.76368       79.62254
H         67.79980       44.65452       78.11811
H         68.15995       47.11051       78.46137
H         66.47285       47.27310       77.88173
H         66.90938       47.89268       79.50492
N         67.70228       47.37399       82.03575
C         67.48263       48.19316       83.23358
C         68.70468       48.10351       84.13233
O         69.67002       47.45493       83.74851
C         67.05548       49.65164       82.87496
C         68.13173       50.40346       82.04534
C         65.69007       49.62727       82.16372
C         67.78765       51.87235       81.77753
H         68.38863       47.69473       81.33786
H         66.66558       47.75588       83.84866
H         66.91081       50.20636       83.82788
H         68.28985       49.90810       81.06506
H         69.09063       50.38720       82.60656
H         65.29991       50.65178       82.00030
H         65.75834       49.10926       81.18605
H         64.94283       49.10004       82.79429
H         66.88009       51.96906       81.14744
H         67.63436       52.41738       82.73271
H         68.62316       52.35268       81.22548
N         68.70701       48.66282       85.38146
C         69.78761       48.42892       86.33441
C         69.21921       47.78572       87.60018
O         69.49275       48.25533       88.69139
C         70.54090       49.75476       86.60926
C         71.79643       49.56355       87.42224
O         72.58461       50.61215       87.72230
O         72.15288       48.44681       87.76751
H         67.89903       49.22493       85.68964
H         70.51872       47.71260       85.90148
H         69.86751       50.47722       87.11333
H         70.84944       50.19720       85.63738
N         68.38220       46.71222       87.51700
C         67.75954       46.06654       88.67840
C         66.99011       47.08652       89.52510
O         66.18315       47.80757       88.95371
C         66.75861       44.99128       88.18877
C         66.08525       44.28497       89.34238
C         66.79972       43.37588       90.14092
C         64.73739       44.55007       89.64163
C         66.17564       42.74990       91.22573
C         64.12120       43.93013       90.73179
C         64.83925       43.03084       91.52351
H         68.14789       46.36149       86.57513
H         68.54785       45.56891       89.27930
H         67.25525       44.23850       87.53856
H         65.99363       45.50689       87.56598
H         67.83822       43.15658       89.92653
H         64.16937       45.25325       89.04532
H         66.72958       42.05220       91.84024
H         63.08781       44.15172       90.96535
H         64.35993       42.55341       92.36835
N         67.13172       47.18718       90.88898
C         66.34371       48.10280       91.70166
C         66.92565       49.50973       91.70640
O         66.28946       50.40453       92.24554
C         66.41089       47.46580       93.09268
C         67.83417       46.93758       93.11634
C         67.96637       46.33590       91.71736
H         65.28431       48.13698       91.36290
H         66.12740       48.13201       93.93574
H         65.73553       46.57910       93.10419
H         68.51454       47.81543       93.19145
H         68.07623       46.23591       93.94271
H         69.03413       46.32608       91.41122
H         67.54753       45.31276       91.70194
N         68.14752       49.77085       91.16441
C         68.74826       51.09488       91.12597
C         67.93523       51.98627       90.21296
O         67.47228       53.02934       90.65264
C         70.21148       51.02084       90.62960
C         71.09903       50.19537       91.57921
C         72.51323       50.13821       91.08605
O         73.03110       49.06100       90.83719
O         73.22325       51.27220       90.93158
H         68.68795       48.98974       90.78305
H         68.77327       51.52455       92.15308
H         70.62202       52.05306       90.57064
H         70.24657       50.57873       89.61316
H         70.71492       49.15704       91.66861
H         71.09380       50.65515       92.58989
N         67.70946       51.62212       88.92037
C         66.94378       52.44041       88.00757
H         65.91523       52.58693       88.39983
H         67.43854       53.42612       87.87809
H         66.87995       51.94115       87.01685
H         68.08327       50.72728       88.57306
Ca        74.57276       49.89528       88.48916
O         74.26837       49.77030       85.21751
H         74.00643       48.85932       85.50314
H         75.22923       49.83545       85.44541
O         77.30045       51.16152       87.93978
H         78.23532       51.41602       87.73922
H         76.90040       50.96008       87.05676
O         74.74055       53.06264       88.11011
H         75.46801       53.68181       87.84961
H         73.99574       53.65425       88.38506
O         76.24560       50.36779       91.11304
H         77.12945       50.29865       90.67262
H         75.85652       49.46134       91.03032

Ca 1.0



