%chk=apoCaM-CA-Ng.loop1.water3.frame1156.chk
%nprocshared=20
%mem=10GB
%nosave
#b3lyp/svp scf=(tight,noincore,xqc) Test 
#IOP(5/87=12) Density=Current Pop=(MK,readradii) iop(6/33=2) iop(6/42=6)

apoCaM-CA-Ng.loop1.water3.frame1156 

   0  1 
C         94.93261       43.93242      106.96212
C         96.42609       43.88152      107.03451
O         97.05675       44.90459      106.83465
H         94.59050       44.95306      106.68389
H         94.57494       43.21846      106.19038
H         94.50489       43.66255      107.94838
N         97.06096       42.69911      107.26676
C         98.51218       42.54431      107.26412
C         98.91221       41.92007      105.94512
O         99.43980       40.81744      105.89957
C         99.02521       41.79715      108.52146
C         98.50118       40.39393      108.69740
O         97.19302       40.17142      108.92372
O         99.27423       39.44908      108.68733
H         96.47674       41.85596      107.34923
H         99.01578       43.53398      107.28517
H         98.76679       42.38267      109.42960
H        100.13654       41.75800      108.45744
N         98.68592       42.63604      104.80794
C         98.96118       42.16583      103.46422
C        100.15622       42.88355      102.82838
O        101.04326       42.15940      102.39766
C         97.69547       42.27456      102.58809
C         96.54869       41.38183      103.08550
C         95.31957       41.56012      102.18412
C         94.18471       40.60502      102.56899
N         93.02786       40.80124      101.69464
H         98.27124       43.57029      104.90395
H         99.23028       41.08437      103.48659
H         97.95238       41.95983      101.55280
H         97.32972       43.31533      102.54532
H         96.27424       41.64458      104.13131
H         96.88373       40.32177      103.05909
H         95.60556       41.35827      101.12881
H         94.96164       42.61104      102.26155
H         93.88281       40.77912      103.62552
H         94.54228       39.55557      102.47189
H         92.28176       40.11527      101.95047
H         92.65200       41.77063      101.80972
H         93.29931       40.64709      100.69597
N        100.31560       44.23734      102.66504
C         99.46686       45.31132      103.18180
C         99.78461       45.60431      104.65005
O        100.67586       44.98151      105.21113
C         99.64153       46.57983      102.31053
C        101.02214       47.15916      102.43302
O        101.44794       47.58890      103.63373
O        101.75425       47.22273      101.46432
H        101.15980       44.52645      102.14520
H         98.40655       45.03554      103.07505
H         98.90845       47.35615      102.61139
H         99.42702       46.31675      101.24982
N         99.06781       46.53562      105.34014
C         99.26248       46.80377      106.75962
C        100.48054       47.62584      107.10366
O        101.20119       48.07454      106.23132
H         98.28073       47.00316      104.86624
H         99.29619       45.84706      107.31569
H         98.39404       47.39052      107.12811
N        100.74192       47.86932      108.42015
C        101.79872       48.76005      108.90460
C        101.28835       49.55124      110.12670
O        100.26933       49.17299      110.68423
C        103.03526       47.91509      109.28664
C        103.62864       47.21362      108.09839
O        104.07610       47.85866      107.16303
O        103.69624       45.86956      108.07440
H        100.14413       47.39467      109.11245
H        102.06743       49.47367      108.09852
H        102.74216       47.16706      110.05370
H        103.84050       48.53005      109.72040
N        101.91935       50.65218      110.64325
C        103.06351       51.31759      110.05301
C        102.71600       51.97771      108.74179
O        101.55254       52.03428      108.36817
H        101.53594       51.06768      111.50750
H        103.89927       50.61181      109.92483
H        103.42650       52.11801      110.73462
N        103.71156       52.49740      107.98168
C        103.50582       53.15800      106.69565
C        102.75884       52.25691      105.71479
O        103.07833       51.08133      105.62929
C        104.87265       53.60351      106.12313
C        104.71307       54.43234      104.85236
O        105.68602       52.49157      105.84372
H        104.67386       52.40581      108.34469
H        102.90585       54.07920      106.86772
H        105.37174       54.26940      106.86804
H        106.25678       52.32804      106.63893
H        104.09238       55.33101      105.05325
H        105.71298       54.76476      104.50282
H        104.23042       53.83013      104.05457
N        101.74903       52.77016      104.94342
C        100.92223       52.01632      103.99681
C        101.73777       51.41654      102.84704
O        102.66273       50.65491      103.07512
C        100.05160       50.95228      104.72746
C         99.17632       51.57045      105.85402
C         99.16619       50.16694      103.74055
C         98.11448       52.57613      105.38896
H        101.53347       53.77399      105.03880
H        100.20559       52.72912      103.53872
H        100.73132       50.22548      105.20735
H         99.82944       52.08291      106.58508
H         98.65665       50.74906      106.39446
H         98.48280       50.83986      103.18345
H         99.78676       49.63466      102.99451
H         98.56389       49.40912      104.28440
H         98.57432       53.44962      104.88485
H         97.37953       52.10062      104.70822
H         97.55694       52.95318      106.27176
N        101.36810       51.66616      101.55803
C        101.99383       51.03458      100.39277
C        103.41049       51.54891      100.11331
O        104.06314       51.00284       99.23512
C        101.06255       51.26208       99.16355
C        101.48279       50.54204       97.87806
O        100.95135       52.64036       98.90343
H        100.53669       52.25819      101.40763
H        102.03763       49.93844      100.58324
H        100.06732       50.84074       99.45047
H         99.99927       52.82676       98.69144
H        102.43156       50.94506       97.47236
H        101.58305       49.45137       98.05744
H        100.70471       50.70247       97.10089
N        103.93196       52.63051      100.76032
C        105.18814       53.25778      100.34802
C        106.38750       52.34668      100.57608
O        106.70706       52.06628      101.72215
C        105.37078       54.60580      101.09167
C        106.63786       55.35326      100.67771
O        104.26631       55.43928      100.83540
H        103.37095       53.08871      101.49132
H        105.10255       53.49219       99.26333
H        105.46201       54.40599      102.18048
H        103.66754       55.39886      101.62709
H        107.54230       54.75710      100.91652
H        106.61718       55.57682       99.59060
H        106.70206       56.30855      101.24132
N        107.11358       51.87172       99.51596
C        108.33330       51.07371       99.64469
C        108.06626       49.82215      100.46275
O        108.56687       49.69322      101.57204
C        109.50583       51.92719      100.18304
C        109.82852       53.09164       99.22592
C        111.11952       53.81702       99.62584
C        111.43138       54.96260       98.65003
N        112.70481       55.60275       98.97945
H        106.79374       52.09084       98.56050
H        108.65954       50.73754       98.63422
H        110.40057       51.26788      100.23861
H        109.29504       52.31824      101.20153
H        108.97945       53.80793       99.20764
H        109.96994       52.68997       98.19802
H        111.95895       53.08740       99.60351
H        111.02462       54.22318      100.65608
H        110.61481       55.71752       98.69218
H        111.48757       54.56628       97.61128
H        113.48489       54.91077       98.89396
H        112.87804       56.38657       98.30912
H        112.67776       55.98630       99.95175
N        107.25976       48.85352       99.94775
C        106.80881       47.68368      100.69308
C        105.28698       47.67413      100.73162
O        104.77396       47.80335      101.82995
C        107.39916       46.35441      100.16532
C        108.85660       46.14943      100.60141
C        109.38873       44.85035      100.06358
O        109.48891       44.67996       98.85881
O        109.75680       43.86656      100.90685
H        106.91854       48.98867       98.98697
H        107.13976       47.75821      101.75517
H        107.33671       46.28006       99.06659
H        106.82051       45.51081      100.60404
H        108.89280       46.12016      101.71407
H        109.50049       46.98148      100.24836
N        104.45129       47.53405       99.65755
C        104.80014       47.33982       98.26850
H        105.87360       47.34583       98.06236
H        104.38610       46.36512       97.93312
H        104.34014       48.14813       97.66464
H        103.44065       47.55519       99.83894
Ca       103.52083       48.25591      104.20090
O        106.39541       47.15510      104.49112
H        106.34715       46.25234      104.08756
H        106.95652       47.03953      105.29829
O        103.76787       45.18421      104.92067
H        104.51962       45.11644      105.56101
H        103.12469       45.79248      105.36269
O        105.98531       50.10051      103.89563
H        105.19576       50.44817      104.37698
H        105.68063       50.03116      102.95735

Ca 1.0



