%chk=apoCaM-CA-Ng.loop3.water3.frame660.chk
%nprocshared=20
%mem=10GB
%nosave
#b3lyp/svp scf=(tight,noincore,xqc) Test 
#IOP(5/87=12) Density=Current Pop=(MK,readradii) iop(6/33=2) iop(6/42=6)

apoCaM-CA-Ng.loop3.water3.frame660 

   0  1 
C         67.08207       50.65297      103.49847
C         65.99891       51.62890      103.85775
O         64.90237       51.21235      104.20105
H         67.94524       50.79764      104.18492
H         66.72711       49.60567      103.60295
H         67.41880       50.82278      102.45549
N         66.26683       52.96267      103.84744
C         65.32638       53.97179      104.32355
C         64.12173       54.10250      103.39632
O         64.29526       54.49224      102.24976
C         66.08506       55.31262      104.49082
C         65.35466       56.35975      105.27435
O         65.96247       57.52836      105.54698
O         64.23338       56.15856      105.69658
H         67.22061       53.25417      103.57939
H         64.98943       53.65505      105.33133
H         66.37662       55.71460      103.49678
H         67.01424       55.11785      105.06209
N         62.86750       53.76317      103.82477
C         61.68541       53.83887      102.95987
C         61.23078       55.27863      102.71785
O         60.42287       55.49333      101.82492
C         60.47912       53.06693      103.55105
C         60.79194       51.59846      103.88317
C         59.53618       50.86006      104.36626
C         59.87768       49.42451      104.78940
N         58.67623       48.69117      105.18627
H         62.77200       53.38835      104.77653
H         61.94835       53.35601      101.99183
H         59.64995       53.09482      102.80876
H         60.12467       53.57386      104.47412
H         61.55783       51.55130      104.68479
H         61.18808       51.08595      102.98010
H         58.78892       50.84090      103.54261
H         59.09324       51.39314      105.23671
H         60.58917       49.45623      105.64542
H         60.36709       48.88976      103.94574
H         58.19590       49.17885      105.97695
H         58.02409       48.60912      104.37256
H         58.94982       47.73066      105.49632
N         61.63763       56.29446      103.53335
C         61.19275       57.68365      103.42347
C         62.35878       58.64284      103.19006
O         62.10661       59.82777      103.01710
C         60.38720       58.10226      104.68964
C         61.14011       57.92810      105.99354
O         61.44115       58.89595      106.67255
O         61.44134       56.68259      106.41653
H         62.27536       56.06493      104.29862
H         60.51440       57.79871      102.54959
H         59.45655       57.49819      104.75301
H         60.08090       59.16559      104.57129
N         63.65587       58.21814      103.16570
C         64.79908       59.08970      102.94226
C         65.06346       60.12573      104.02635
O         66.05024       60.83241      103.88354
H         63.86440       57.21810      103.26376
H         64.68145       59.60323      101.96448
H         65.70911       58.45268      102.88151
N         64.25392       60.30146      105.11419
C         64.49428       61.32156      106.13544
C         64.52179       60.70493      107.52030
O         64.27055       59.51503      107.65867
C         63.37699       62.38242      106.05889
C         63.37121       63.08260      104.72377
N         64.43840       63.81343      104.32336
O         62.39074       62.99551      103.99999
H         63.41249       59.72499      105.22319
H         65.47550       61.81690      105.97804
H         63.51149       63.15539      106.84474
H         62.39410       61.88745      106.22954
H         65.26974       63.90853      104.92470
H         64.43306       64.29213      103.41089
N         64.80775       61.47832      108.61124
C         64.75379       60.95857      109.96613
C         65.73795       59.83867      110.20619
O         66.60819       59.58667      109.38308
H         65.02476       62.47771      108.48481
H         63.72529       60.56951      110.13149
H         64.93336       61.76563      110.70869
N         65.58296       59.06469      111.31433
C         66.35130       57.84920      111.58380
C         66.20370       56.83936      110.45057
O         65.49151       57.08318      109.48570
C         65.80343       57.19062      112.87984
C         66.13206       57.96253      114.12792
C         67.44671       57.95659      114.62274
C         65.13252       58.64776      114.83531
C         67.75412       58.61638      115.81530
C         65.44556       59.32208      116.01933
C         66.75300       59.30240      116.51805
O         67.03307       59.93723      117.67385
H         64.82440       59.32288      111.96552
H         67.43156       58.09152      111.69050
H         66.19870       56.16793      113.04762
H         64.70252       57.07491      112.76023
H         68.22683       57.41720      114.09874
H         64.11314       58.66190      114.47040
H         68.76758       58.58608      116.19554
H         64.66804       59.85112      116.55527
H         67.91953       59.93010      118.06239
N         66.82885       55.63386      110.55258
C         66.65215       54.53469      109.62032
C         65.11858       54.26741      109.45453
O         64.64919       54.39690      108.14668
C         67.48795       54.69935      108.31083
C         67.42604       53.44899      107.37690
C         68.96228       54.99967      108.64757
C         67.86314       52.11198      107.98820
H         67.40772       55.44573      111.38488
H         67.12974       53.66586      110.11857
H         67.09948       55.57030      107.73951
H         68.06196       53.63346      106.48532
H         66.40259       53.30760      107.00805
H         69.41331       54.18241      109.24895
H         69.55432       55.12102      107.71509
H         69.05089       55.94174      109.22651
H         68.91653       52.14271      108.32861
H         67.21097       51.81858      108.83207
H         67.77253       51.31569      107.21853
N         64.69337       53.03109      110.13065
C         63.50229       52.31339      109.63916
C         62.92176       51.54081      110.80428
O         61.73116       51.64823      111.06143
C         63.84638       51.30088      108.52249
O         64.31588       51.94897      107.37435
H         65.48439       52.35934      110.21896
H         62.73222       53.02139      109.26204
H         62.91718       50.72886      108.28425
H         64.61513       50.57482      108.86419
H         63.87919       51.52407      106.59178
N         63.73669       50.76174      111.57589
C         63.29504       49.96358      112.70814
C         62.48836       50.79880      113.69759
O         62.95526       51.87111      114.05621
C         64.51483       49.37300      113.41938
H         64.74109       50.73387      111.35351
H         62.70815       49.13174      112.28762
H         65.16011       50.18280      113.82580
H         64.18537       48.72696      114.24904
H         65.11317       48.75761      112.71511
N         61.25432       50.43402      114.16382
C         60.61360       49.14052      113.94618
C         59.98206       48.64123      115.24304
O         59.13073       49.34530      115.76826
C         59.54548       49.26536      112.85833
H         60.73927       51.12492      114.73284
H         61.33654       48.40298      113.58687
H         59.07205       48.27512      112.67967
H         58.76198       49.99770      113.14416
H         60.01544       49.59627      111.90745
N         60.27755       47.43795      115.82611
C         61.25242       46.47850      115.31517
C         62.68041       46.87705      115.66427
O         63.59338       46.23274      115.16554
C         60.98774       45.06170      115.87773
C         59.57352       44.53193      115.57481
C         59.27877       44.48407      114.10192
O         59.96210       43.80022      113.35680
O         58.25563       45.20066      113.59789
H         59.73890       47.18058      116.66795
H         61.13699       46.39517      114.21489
H         61.13156       45.06720      116.98077
H         61.72780       44.35381      115.44141
H         58.81731       45.17090      116.07662
H         59.47700       43.50761      115.99364
N         62.95621       47.88362      116.54755
C         64.30198       48.25251      116.94438
H         65.08005       47.65688      116.42185
H         64.47200       49.32585      116.71863
H         64.41947       48.09373      118.03695
H         62.18982       48.40425      116.99592
Ca        62.88406       55.87695      107.99372
O         61.19105       55.34642      110.50601
H         60.81527       54.60817      109.96434
H         62.09294       55.03057      110.76542
O         61.91794       58.41528      109.72739
H         61.46364       59.26470      109.49809
H         61.65151       58.23682      110.66396
O         61.14269       53.77698      106.80243
H         60.69169       53.73494      107.68085
H         62.08385       53.54013      106.99309

Ca 1.0



