%chk=apoCaM-CA-Ng.loop4.water6.frame1035.chk
%nprocshared=20
%mem=10GB
%nosave
#b3lyp/svp scf=(tight,noincore,xqc) Test 
#IOP(5/87=12) Density=Current Pop=(MK,readradii) iop(6/33=2) iop(6/42=6)

apoCaM-CA-Ng.loop4.water6.frame1035 

   -3  1 
C         32.05949       57.39409       40.30563
C         33.21439       56.47814       39.98638
O         33.73130       55.89889       40.93000
H         31.26689       56.80012       40.80910
H         32.40426       58.18316       41.00619
H         31.58632       57.88918       39.44409
N         33.69543       56.22692       38.73052
C         33.22726       56.79587       37.46782
C         32.48716       55.75547       36.64512
O         31.95726       56.11382       35.60210
C         34.43441       57.29748       36.63588
C         35.29451       58.28715       37.36381
O         34.95292       58.68738       38.59813
O         36.32507       58.69231       36.85295
H         34.45772       55.54328       38.66447
H         32.53758       57.63881       37.63746
H         34.08426       57.75727       35.68680
H         35.06941       56.42322       36.37769
N         32.42460       54.44451       37.02806
C         31.73603       53.42265       36.24486
C         32.34138       53.21704       34.85738
O         31.72925       52.49474       34.07907
C         31.72316       52.04256       36.98036
C         33.16237       51.47950       37.17848
C         30.95575       52.13339       38.31329
C         33.19059       50.01610       37.61210
H         32.86509       54.15939       37.90906
H         30.68447       53.76210       36.11028
H         31.16169       51.33732       36.32765
H         33.72286       52.08640       37.91756
H         33.71865       51.51796       36.21888
H         31.46707       52.80072       39.03786
H         29.93183       52.52445       38.13615
H         30.85077       51.13450       38.78103
H         32.70757       49.87006       38.59754
H         32.68159       49.38833       36.84970
H         34.24686       49.68095       37.69258
N         33.53702       53.76151       34.47873
C         34.15623       53.46432       33.18589
C         35.35571       54.37061       32.90977
O         35.79274       55.09192       33.79960
C         34.60079       51.97540       33.18789
C         35.11936       51.48252       31.87068
O         34.38909       51.46105       30.89281
O         36.38549       51.03510       31.76890
H         34.02935       54.37809       35.13799
H         33.39932       53.66877       32.39520
H         33.75716       51.31107       33.46067
H         35.38500       51.84878       33.96778
N         35.92486       54.41575       31.67028
C         37.05910       55.26991       31.37355
C         38.34795       54.58648       31.75580
O         38.47926       54.13780       32.88625
H         35.50695       53.88189       30.89414
H         36.95561       56.23657       31.91205
H         37.06815       55.51347       30.28916
N         39.37153       54.50857       30.85941
C         40.64760       53.87792       31.18111
C         40.49544       52.35336       31.17595
O         39.60299       51.86152       30.49916
C         41.72869       54.33435       30.17322
C         41.90209       55.83095       30.21368
O         42.27587       56.43887       31.35679
O         41.70279       56.50109       29.21310
H         39.25722       54.96549       29.94091
H         40.96144       54.23489       32.18600
H         41.44457       54.01440       29.14679
H         42.71176       53.88405       30.40573
N         41.31439       51.51591       31.88218
C         42.38406       52.00584       32.73445
C         43.21287       50.92023       33.41200
O         42.89683       49.75047       33.24908
H         41.14885       50.50137       31.79947
H         41.92650       52.63910       33.51853
H         43.04501       52.58658       32.09596
N         44.29329       51.19326       34.21894
C         44.85691       52.51084       34.53534
C         43.77797       53.38332       35.14366
O         43.41068       54.39057       34.55127
C         45.54329       53.17217       33.30452
C         46.58140       52.28067       32.60165
C         47.81369       52.04872       33.43524
N         48.20834       50.79725       33.76385
O         48.48191       53.00666       33.79500
H         44.75728       50.38748       34.66771
H         45.66152       52.37771       35.29262
H         46.02492       54.12411       33.61788
H         44.81064       53.46381       32.54294
H         46.90683       52.79272       31.67070
H         46.10747       51.32071       32.30064
H         47.66808       49.97366       33.46245
H         49.06684       50.65162       34.31584
N         43.18170       53.01700       36.31503
C         41.96202       53.65413       36.80525
C         40.89710       52.59954       37.09844
O         41.21478       51.43164       37.27556
C         42.21764       54.60782       38.00719
C         43.11123       55.78362       37.58538
C         42.84071       53.90553       39.21842
H         43.56505       52.21337       36.83680
H         41.53707       54.28673       35.99424
H         41.23998       55.03739       38.32259
H         44.11591       55.42828       37.27210
H         42.64575       56.33645       36.74168
H         43.23585       56.49467       38.43021
H         42.97255       54.62647       40.05393
H         42.17751       53.10384       39.57859
H         43.83183       53.47388       38.96548
N         39.58385       52.95794       37.10484
C         38.47369       52.03006       37.33534
C         38.29559       51.65360       38.81508
O         37.32244       50.98402       39.13479
C         37.14242       52.63418       36.81193
C         36.63935       53.79515       37.63582
N         37.10476       55.05486       37.46213
O         35.78128       53.58247       38.47738
H         39.38076       53.92842       36.84958
H         38.64012       51.11322       36.72732
H         36.38048       51.82458       36.87876
H         37.19542       52.90891       35.73603
H         37.78595       55.28698       36.72869
H         36.75082       55.82419       38.04630
N         39.16543       52.07538       39.77302
C         38.93982       51.95330       41.21172
C         39.26953       53.28741       41.87547
O         39.62629       54.22735       41.17528
C         39.75476       50.79188       41.81294
C         41.23054       50.92050       41.57305
C         42.06935       51.46463       42.55698
C         41.77726       50.49161       40.35534
C         43.43897       51.59494       42.31498
C         43.14644       50.61417       40.11736
C         43.98201       51.17318       41.09551
O         45.30318       51.31300       40.87228
H         40.01800       52.56288       39.48422
H         37.87053       51.72606       41.42143
H         39.40226       49.82170       41.39964
H         39.55304       50.73112       42.90360
H         41.66130       51.79945       43.50304
H         41.13950       50.06272       39.59242
H         44.07670       52.02773       43.07492
H         43.55210       50.28350       39.17012
H         45.71161       51.04470       40.03701
N         39.15664       53.45449       43.22448
C         39.38909       54.73937       43.86759
C         38.06369       55.18251       44.41968
O         37.58517       54.60421       45.38686
C         40.50577       54.63473       44.92228
C         40.85287       55.99847       45.54003
C         42.00564       55.88032       46.49628
O         43.09353       55.48846       46.10333
O         41.85068       56.22487       47.78869
H         38.84026       52.66712       43.81013
H         39.72599       55.48707       43.11707
H         41.41287       54.23925       44.41414
H         40.21420       53.91748       45.72132
H         39.96799       56.40438       46.07598
H         41.13768       56.71284       44.73719
N         37.34485       56.12518       43.74866
C         35.97795       56.46921       44.11352
C         35.02443       55.28399       43.91420
O         33.87363       55.39841       44.31309
C         35.48765       57.70714       43.32316
C         36.39218       58.93109       43.58315
C         35.86824       60.17799       42.93551
O         36.59414       60.79198       41.98377
O         34.77900       60.62883       43.25149
H         37.77161       56.57226       42.92415
H         35.97094       56.74326       45.19163
H         34.45362       57.94743       43.65470
H         35.46087       57.48635       42.23278
H         37.41029       58.73599       43.18574
H         36.47151       59.11671       44.67396
N         35.42092       54.11224       43.32741
C         34.54759       52.96427       43.21124
H         33.65374       53.21761       42.60534
H         35.08893       52.12670       42.71808
H         34.23503       52.62485       44.22221
H         36.37116       54.00235       42.95089
Ca        36.13479       60.02208       39.93972
O         37.63330       57.27660       40.20359
H         38.53272       56.88839       40.06178
H         37.06392       56.50146       40.43868
O         39.49074       60.08041       41.09212
H         39.77979       59.33651       41.67787
H         39.32447       60.83471       41.71172
O         37.13169       61.42287       36.74522
H         37.71688       62.13517       36.38575
H         36.53937       61.18454       35.98840
O         39.69506       58.46744       37.99087
H         39.52298       58.05187       37.10894
H         40.33144       57.85293       38.43580
O         37.03709       62.99675       39.62905
H         36.47926       63.10039       40.44044
H         36.73145       63.71866       39.02456
O         39.73574       61.55762       38.40854
H         39.82704       62.52621       38.22508
H         40.66679       61.22728       38.47395

Ca 1.0



