%chk=apoCaM-CA-Ng.loop2.water4.frame130.chk
%nprocshared=20
%mem=10GB
%nosave
#b3lyp/svp scf=(tight,noincore,xqc) Test 
#IOP(5/87=12) Density=Current Pop=(MK,readradii) iop(6/33=2) iop(6/42=6)

apoCaM-CA-Ng.loop2.water4.frame130 

   -2  1 
C         26.22380       55.79218       -4.09999
C         25.41122       56.03017       -5.33798
O         25.84362       56.77465       -6.20688
H         27.17994       56.35654       -4.13944
H         25.64868       56.12738       -3.21115
H         26.44920       54.70965       -4.00060
N         24.20268       55.41817       -5.48442
C         23.35639       55.60248       -6.66158
C         22.80575       57.02182       -6.80770
O         22.14986       57.26559       -7.80589
C         22.17740       54.59672       -6.64439
C         21.20259       54.77385       -5.50161
O         21.37110       55.73437       -4.57112
O         20.23776       54.03141       -5.41991
H         23.89820       54.76825       -4.74259
H         23.97258       55.36735       -7.55839
H         22.58864       53.56514       -6.59815
H         21.61169       54.69039       -7.59727
N         22.97198       57.97078       -5.83608
C         22.39521       59.31444       -5.81362
C         22.96063       60.26830       -6.85545
O         23.68723       61.16759       -6.46457
C         20.86365       59.27991       -5.84342
H         23.49571       57.71674       -4.98778
H         22.67463       59.74370       -4.82517
H         20.48620       58.64865       -5.01151
H         20.46092       60.30761       -5.71765
H         20.47928       58.86938       -6.79868
N         22.64151       60.18569       -8.17792
C         23.09306       61.14613       -9.17917
C         24.04155       60.49758      -10.17536
O         24.41998       61.15800      -11.13350
C         21.86578       61.74322       -9.89582
C         20.92000       62.40673       -8.93165
O         19.77246       62.00514       -8.82418
O         21.32797       63.45298       -8.19017
H         22.01990       59.44045       -8.50931
H         23.65575       61.98602       -8.71301
H         21.33111       60.93464      -10.44075
H         22.19517       62.50461      -10.63602
N         24.53345       59.23752       -9.97758
C         25.52054       58.61183      -10.84096
C         26.74517       59.48253      -10.96829
O         27.17234       59.75408      -12.08170
H         24.25536       58.70077       -9.14407
H         25.08603       58.40801      -11.84354
H         25.81758       57.64125      -10.38708
N         27.31375       60.02466       -9.85736
C         28.42969       60.95720       -9.92502
C         29.70002       60.22853      -10.31652
O         30.12868       59.33096       -9.60551
C         28.59807       61.68603       -8.57725
C         27.38581       62.54032       -8.27457
N         27.07839       63.60760       -9.04959
O         26.67496       62.26811       -7.32084
H         26.88106       59.82655       -8.94109
H         28.20125       61.73835      -10.68356
H         29.49075       62.34829       -8.59765
H         28.74502       60.93063       -7.77659
H         27.66895       63.86767       -9.85258
H         26.25221       64.18694       -8.83785
N         30.35144       60.57296      -11.45984
C         31.58803       59.95815      -11.90910
C         32.74836       60.28332      -10.99793
O         32.83873       61.41376      -10.53727
H         29.94980       61.31193      -12.05712
H         31.83944       60.39665      -12.89898
H         31.46305       58.86322      -12.05394
N         33.75203       59.37723      -10.80241
C         34.97380       59.72381      -10.07452
C         34.77884       59.71965       -8.56265
O         35.64492       60.22790       -7.86748
C         36.18387       58.84947      -10.50038
C         36.06178       57.36494      -10.12461
O         36.43367       58.99362      -11.87797
H         33.68516       58.47140      -11.28865
H         35.24847       60.76151      -10.37323
H         37.08163       59.23687       -9.97036
H         35.72162       58.51407      -12.37580
H         35.19142       56.88670      -10.61731
H         36.98174       56.82879      -10.44082
H         35.95973       57.25206       -9.02854
N         33.68014       59.15223       -7.98543
C         33.39104       59.20328       -6.55070
C         32.05496       59.89688       -6.34156
O         31.39512       60.22889       -7.31485
C         33.44586       57.78438       -5.90335
C         32.56862       56.75590       -6.66673
C         34.91226       57.32452       -5.80411
C         32.49306       55.38391       -5.99347
H         32.99188       58.68113       -8.58855
H         34.13417       59.84237       -6.02567
H         33.07414       57.86706       -4.85835
H         32.96308       56.60476       -7.69480
H         31.53247       57.14946       -6.74064
H         35.00227       56.36622       -5.25512
H         35.36355       57.20880       -6.80792
H         35.50562       58.07036       -5.23220
H         33.48771       54.89592       -5.94711
H         32.07741       55.47862       -4.96880
H         31.82952       54.72088       -6.58820
N         31.62219       60.21873       -5.08784
C         30.43958       61.05095       -4.88466
C         30.62882       61.92247       -3.65087
O         29.77572       61.96930       -2.78433
C         29.17921       60.16095       -4.86971
C         27.88968       60.93275       -4.83475
O         26.82969       60.32830       -4.84068
O         27.88437       62.28057       -4.81881
H         32.22562       59.99434       -4.28170
H         30.36928       61.77180       -5.73056
H         29.22554       59.47518       -3.99634
H         29.16755       59.54108       -5.79197
N         31.77484       62.64199       -3.53385
C         32.13526       63.52344       -2.41958
C         31.97807       62.85428       -1.04936
O         32.60260       61.83312       -0.82085
C         33.58030       64.07451       -2.64829
C         34.59517       63.02701       -3.10970
C         35.12238       62.03850       -2.25666
C         34.99522       63.02509       -4.46326
C         35.98887       61.05732       -2.75555
C         35.85934       62.04592       -4.95458
C         36.34950       61.05614       -4.10441
H         32.44178       62.53554       -4.30912
H         31.46259       64.40077       -2.44468
H         33.95143       64.65423       -1.77584
H         33.47115       64.80689       -3.47810
H         34.87669       62.01230       -1.20858
H         34.61305       63.76755       -5.15283
H         36.37827       60.29205       -2.09650
H         36.13800       62.05119       -5.99953
H         37.01098       60.29158       -4.49139
N         31.16354       63.37043       -0.06519
C         31.07103       62.80862        1.27941
C         30.26907       61.51720        1.32359
O         30.29227       60.84376        2.34410
C         30.39278       63.92811        2.08145
C         29.45673       64.52686        1.05110
C         30.34065       64.55929       -0.19482
H         32.08323       62.62105        1.70067
H         29.92174       63.61600        3.03868
H         31.15235       64.71156        2.30426
H         28.63654       63.79214        0.88357
H         28.99751       65.50350        1.31394
H         29.67885       64.53933       -1.08820
H         31.00653       65.44960       -0.21612
N         29.49897       61.13558        0.27090
C         28.70989       59.91202        0.24075
C         29.58822       58.69232       -0.02130
O         29.07288       57.58506        0.04422
C         27.64492       60.01481       -0.87211
C         26.69511       61.20955       -0.65703
C         25.84041       61.41338       -1.86666
O         25.07507       60.54153       -2.24544
O         25.96550       62.55473       -2.56969
H         29.42920       61.77504       -0.52212
H         28.18152       59.79977        1.21362
H         27.04119       59.08210       -0.92371
H         28.17237       60.13627       -1.84278
H         27.27059       62.14684       -0.51440
H         26.07031       61.05487        0.24792
N         30.90629       58.81459       -0.36369
C         31.77553       57.69276       -0.65195
H         32.64676       57.72097        0.03558
H         31.26325       56.71592       -0.53549
H         32.14545       57.77623       -1.69653
H         31.33211       59.74353       -0.45536
Ca        24.97671       62.80129       -4.57156
O         26.70383       65.14608       -5.93380
H         27.68493       65.27362       -5.90362
H         26.35433       65.98589       -6.32499
O         24.16962       65.41278       -3.72328
H         23.63721       65.66771       -2.92907
H         24.88483       66.09471       -3.77897
O         22.26772       62.25045       -3.51115
H         22.68137       62.98015       -2.98529
H         22.66788       61.42544       -3.13895
O         23.89957       64.45555       -6.84335
H         23.26893       65.21736       -6.86742
H         23.34167       63.68797       -6.56529

Ca 1.0



