%chk=apoCaM-CA-Ng.loop2.water4.frame1123.chk
%nprocshared=20
%mem=10GB
%nosave
#b3lyp/svp scf=(tight,noincore,xqc) Test 
#IOP(5/87=12) Density=Current Pop=(MK,readradii) iop(6/33=2) iop(6/42=6)

apoCaM-CA-Ng.loop2.water4.frame1123 

   -2  1 
C         75.72363       67.59195       45.04910
C         76.83454       68.42003       45.63500
O         77.52915       67.91978       46.50770
H         74.74237       68.08242       45.21071
H         75.90308       67.45238       43.96174
H         75.69401       66.58702       45.52366
N         77.11787       69.68573       45.20976
C         76.37137       70.42197       44.19176
C         75.90021       71.75357       44.79394
O         75.42465       71.72207       45.91988
C         77.24950       70.50241       42.91219
C         78.57873       71.14799       43.19641
O         78.63951       72.32508       43.50471
O         79.69318       70.40052       43.28712
H         77.93429       70.15496       45.62697
H         75.45369       69.86573       43.91373
H         76.73021       71.00722       42.07177
H         77.44398       69.45429       42.59426
N         75.96770       72.94548       44.11782
C         75.54672       74.24444       44.65440
C         76.46115       74.79451       45.75924
O         76.14656       75.84830       46.29446
C         74.06573       74.22057       45.07022
H         76.29804       72.95026       43.14414
H         75.61129       74.98718       43.82746
H         73.44271       73.87593       44.21656
H         73.87839       73.56261       45.94058
H         73.72990       75.24378       45.34287
N         77.64539       74.19639       46.08794
C         78.60671       74.71769       47.06790
C         79.89168       75.15833       46.35688
O         79.91836       75.17084       45.13298
C         78.88597       73.63075       48.13846
C         79.51068       72.40933       47.52266
O         80.65932       72.51749       46.82307
O         78.92422       71.34139       47.56225
H         77.92015       73.34328       45.58942
H         78.20069       75.60803       47.59623
H         77.92455       73.36117       48.62963
H         79.55480       74.01929       48.93214
N         81.01425       75.48978       47.06669
C         82.26350       75.90980       46.45038
C         83.35034       74.86364       46.60754
O         83.20724       73.78398       46.05221
H         81.00268       75.43284       48.09413
H         82.56618       76.87880       46.90094
H         82.14179       76.08552       45.36025
N         84.48966       75.13226       47.31013
C         85.65460       74.24615       47.34459
C         85.90445       73.70923       48.73992
O         85.97007       74.48640       49.68270
C         86.91058       75.02128       46.89366
C         86.81743       75.52422       45.47637
N         86.72391       74.66049       44.43858
O         86.85238       76.72648       45.26127
H         84.55923       76.03209       47.80983
H         85.52325       73.38155       46.65764
H         87.80355       74.36101       46.96321
H         87.06987       75.88143       47.58223
H         86.71352       73.64256       44.59645
H         86.67756       75.01104       43.47036
N         86.12427       72.37390       48.92749
C         86.44775       71.78119       50.21803
C         87.76017       72.29705       50.79298
O         88.41070       73.11565       50.15817
H         86.07873       71.73979       48.11453
H         86.54388       70.68191       50.08061
H         85.61833       71.98053       50.92651
N         88.24621       71.87268       51.99715
C         87.58847       70.88921       52.85057
C         86.61201       71.55980       53.79627
O         87.02021       72.37295       54.61378
C         88.61559       70.06045       53.66717
C         89.47759       69.16766       52.77495
O         89.45662       70.89867       54.42215
H         89.13945       72.27667       52.32068
H         87.03905       70.15405       52.22587
H         88.05617       69.36401       54.33903
H         89.08435       70.94782       55.34079
H         90.16695       68.56762       53.40757
H         88.83406       68.46453       52.20354
H         90.07784       69.77316       52.06504
N         85.29594       71.21019       53.76128
C         84.30213       71.65776       54.73361
C         83.73211       70.42553       55.44185
O         83.58416       69.40896       54.77658
C         83.19336       72.52528       54.07108
C         82.38565       71.76040       52.99143
C         83.82432       73.81487       53.50698
C         81.19068       72.55283       52.45807
H         84.98903       70.54427       53.03628
H         84.76824       72.32134       55.47437
H         82.48878       72.82357       54.87920
H         81.96968       70.83338       53.43651
H         83.04203       71.47967       52.14043
H         84.52557       73.58344       52.67721
H         83.05243       74.51839       53.13848
H         84.38503       74.34864       54.30435
H         80.51093       72.82729       53.29224
H         81.51169       73.47111       51.92777
H         80.62741       71.92677       51.73500
N         83.33026       70.39035       56.74910
C         83.37738       71.49789       57.70510
C         82.44518       71.25060       58.89954
O         81.85856       70.18188       59.01692
C         84.83020       71.73924       58.21017
C         85.43511       70.52377       58.86368
O         86.45094       70.02602       58.40392
O         84.88007       69.99197       59.96924
H         82.90883       69.49954       57.05463
H         82.98655       72.41011       57.20860
H         84.84842       72.57857       58.93571
H         85.49900       72.03908       57.38639
N         82.27859       72.22224       59.84092
C         81.49610       72.05622       61.06093
C         80.42603       73.14700       61.15886
O         80.80057       74.30931       61.05965
C         82.44918       72.18722       62.26464
C         81.72622       71.93055       63.56319
C         81.39793       72.99913       64.41220
C         81.36130       70.62257       63.92844
C         80.70537       72.76511       65.60274
C         80.68183       70.39120       65.12861
C         80.35035       71.46243       65.96277
H         82.76896       73.12056       59.71045
H         81.05736       71.04379       61.11150
H         82.88135       73.21222       62.25484
H         83.30197       71.47726       62.18385
H         81.66016       74.01427       64.14209
H         81.60956       69.78398       63.28906
H         80.44270       73.59527       66.24491
H         80.40953       69.38230       65.41103
H         79.81780       71.28386       66.88768
N         79.10226       72.89948       61.42884
C         78.49804       71.59511       61.65013
C         78.55588       70.74161       60.40785
O         79.09773       69.64560       60.45736
C         77.03825       71.91065       62.03718
C         77.17070       73.28112       62.66663
C         78.15180       73.95447       61.71328
H         79.00719       71.11716       62.51511
H         76.40409       72.06503       61.13858
H         76.54573       71.13439       62.66098
H         76.21269       73.82837       62.80068
H         77.66598       73.16107       63.65622
H         77.64797       74.24206       60.76394
H         78.60276       74.84619       62.20016
N         78.00184       71.19455       59.24698
C         77.98032       70.41770       58.02827
C         76.66507       69.65199       57.99184
O         75.63466       70.30870       57.92518
C         78.10309       71.31569       56.76708
C         79.45446       72.04370       56.59312
C         79.68296       73.27190       57.43978
O         80.74084       73.87140       57.33969
O         78.72642       73.77641       58.23792
H         77.47706       72.07849       59.25835
H         78.85954       69.75627       58.00611
H         77.26499       72.04459       56.69534
H         78.01537       70.62536       55.89930
H         79.51107       72.39732       55.54155
H         80.27614       71.31347       56.74901
N         76.55613       68.28965       58.04735
C         77.63390       67.32803       58.19350
H         78.63945       67.76116       58.29168
H         77.45570       66.72639       59.10948
H         77.63832       66.64756       57.31770
H         75.60704       67.88717       58.00162
Ca        80.84978       71.13576       45.06365
O         83.26814       71.11620       42.96758
H         83.30039       70.12659       42.97554
H         83.84630       71.37828       42.20763
O         81.03473       72.83686       41.54088
H         81.51809       73.29406       40.80786
H         80.52472       72.11787       41.09050
O         83.24946       74.40302       43.20052
H         82.54964       74.91683       42.72523
H         83.81880       75.09412       43.62299
O         82.46100       69.10616       46.32715
H         83.13013       69.80111       46.55072
H         81.65468       69.36507       46.84115

Ca 1.0



