%chk=apoCaM-CA-Ng.loop1.water3.frame497.chk
%nprocshared=20
%mem=10GB
%nosave
#b3lyp/svp scf=(tight,noincore,xqc) Test 
#IOP(5/87=12) Density=Current Pop=(MK,readradii) iop(6/33=2) iop(6/42=6)

apoCaM-CA-Ng.loop1.water3.frame497 

   0  1 
C         64.95655       51.89742       67.06479
C         65.30086       52.48506       65.72780
O         64.42060       52.96958       65.03138
H         63.86686       51.96704       67.26292
H         65.26378       50.83079       67.09453
H         65.50069       52.44945       67.86141
N         66.59620       52.49127       65.31837
C         67.05459       53.09282       64.07085
C         66.68963       52.27634       62.81956
O         67.20763       52.61401       61.77669
C         68.59195       53.31980       64.12232
C         69.01111       54.27425       65.21768
O         69.54890       55.33283       64.93107
O         68.82211       53.96521       66.51460
H         67.29863       52.10216       65.96640
H         66.62302       54.11095       63.96438
H         68.91544       53.77828       63.16249
H         69.12882       52.35502       64.24182
N         65.81376       51.22981       62.78914
C         65.57626       50.44523       61.56846
C         64.18238       50.64403       60.99228
O         63.23258       50.51399       61.75167
C         65.71837       48.94783       61.87687
C         67.16066       48.49596       62.10410
C         67.15439       47.01848       62.50875
C         68.56484       46.43446       62.59331
N         68.51396       45.05866       63.08798
H         65.30079       50.96248       63.63867
H         66.30870       50.70219       60.79922
H         65.34301       48.36024       61.00769
H         65.08141       48.70314       62.75594
H         67.64891       49.09704       62.90141
H         67.72280       48.62824       61.15330
H         66.57826       46.42270       61.76563
H         66.65306       46.93314       63.49792
H         69.19163       47.04645       63.27773
H         69.02595       46.45036       61.57972
H         68.13689       45.04948       64.06409
H         67.90392       44.47150       62.47332
H         69.47865       44.65739       63.09465
N         63.92607       50.83152       59.65023
C         64.88889       51.01393       58.54991
C         65.91433       49.88411       58.45348
O         67.09286       50.11594       58.67601
C         65.48523       52.43416       58.59047
C         64.42196       53.47351       58.38117
O         63.14396       53.10569       58.16150
O         64.70751       54.65701       58.44990
H         62.93220       50.83869       59.37239
H         64.34414       51.00055       57.58175
H         66.20718       52.57517       57.77508
H         65.99020       52.61245       59.55646
N         65.56827       48.62487       58.07121
C         64.24052       48.30622       57.57845
C         64.10111       46.87665       57.08901
O         64.99065       46.06826       57.31234
H         66.31242       47.91128       58.04574
H         64.07290       48.96166       56.69652
H         63.47007       48.50848       58.35179
N         63.03059       46.48205       56.33898
C         61.96547       47.38437       55.90920
C         62.24063       47.87114       54.49912
O         63.17408       47.39884       53.86292
C         60.58427       46.71683       56.06632
C         60.42878       45.47749       55.22449
O         60.20817       44.28723       55.81409
O         60.48899       45.54351       54.00688
H         63.04179       45.52400       55.95555
H         61.94851       48.29187       56.54588
H         59.78140       47.43446       55.79275
H         60.44684       46.44860       57.13651
N         61.49098       48.87515       53.96922
C         61.74573       49.44780       52.66039
C         63.13723       50.03473       52.58042
O         63.88811       49.65907       51.69079
H         60.72292       49.27671       54.52833
H         61.01144       50.26155       52.47577
H         61.60385       48.67236       51.87547
N         63.54727       50.96901       53.48622
C         64.86592       51.59884       53.43530
C         65.95962       50.55646       53.59295
O         66.00679       49.88207       54.61324
C         65.03689       52.67994       54.53024
C         64.01279       53.81292       54.39792
O         66.32530       53.23023       54.42159
H         62.88471       51.24134       54.22700
H         64.97042       52.10555       52.44967
H         64.91824       52.19073       55.52430
H         66.53423       53.65480       55.29369
H         64.11455       54.30783       53.40890
H         62.97427       53.44501       54.51311
H         64.19224       54.56631       55.19393
N         66.87429       50.37413       52.59899
C         67.93042       49.36575       52.67139
C         68.96246       49.66282       53.76276
O         69.74272       48.76925       54.06676
C         68.60541       49.13918       51.27885
C         69.36134       50.40049       50.77085
C         67.54791       48.64860       50.26535
C         70.08401       50.18874       49.43689
H         66.77225       50.94133       51.74687
H         67.43845       48.40538       52.94698
H         69.34819       48.31818       51.39384
H         70.12934       50.68364       51.52157
H         68.67049       51.25967       50.64786
H         66.78227       49.42564       50.06113
H         68.01232       48.35803       49.30244
H         67.03466       47.74512       50.65757
H         70.80128       49.34476       49.51134
H         69.36544       49.99230       48.61479
H         70.64374       51.10971       49.16883
N         69.05437       50.88426       54.37196
C         70.00810       51.19306       55.44213
C         69.29369       51.80681       56.64440
O         68.09733       52.02544       56.56558
C         71.12853       52.11988       54.90427
C         70.61015       53.48401       54.43715
O         71.78058       51.49880       53.82620
H         68.44410       51.64635       54.04509
H         70.50119       50.25897       55.79312
H         71.87180       52.31652       55.71074
H         72.30325       50.74171       54.20034
H         71.46123       54.10098       54.07941
H         69.89030       53.37372       53.60023
H         70.11815       54.02370       55.27257
N         69.96391       52.09872       57.79752
C         69.32195       52.65215       59.00065
C         69.08700       54.16980       58.91294
O         69.44087       54.77877       57.91394
C         70.04626       52.16493       60.29741
C         71.53107       52.51179       60.41527
O         69.90832       50.77137       60.40751
H         70.96090       51.84749       57.83387
H         68.30783       52.22284       59.09041
H         69.57928       52.63165       61.18568
H         69.00752       50.60406       60.79307
H         71.68967       53.60600       60.34529
H         71.90020       52.16188       61.40541
H         72.13860       51.99089       59.64906
N         68.47660       54.83561       59.94797
C         68.20327       56.27013       60.00333
C         66.76626       56.60298       60.49791
O         66.42724       57.77714       60.52198
C         69.26346       56.85695       60.96125
C         69.30738       58.38724       61.06504
C         70.43331       58.80362       62.01848
C         70.52878       60.32658       62.14652
N         71.58747       60.69844       63.08444
H         68.28827       54.32227       60.80447
H         68.35121       56.71560       58.99494
H         70.26088       56.52703       60.59127
H         69.11186       56.42094       61.97427
H         68.35567       58.78395       61.46954
H         69.48639       58.82033       60.05646
H         71.40363       58.41009       61.64287
H         70.23633       58.36629       63.02256
H         69.55864       60.73285       62.50988
H         70.74594       60.76877       61.14877
H         71.64244       61.74041       63.14493
H         71.37461       60.31478       64.03426
H         72.50828       60.32771       62.75442
N         65.87226       55.65309       60.92173
C         64.54328       55.96485       61.47580
C         64.65161       56.75421       62.76699
O         65.30221       56.29831       63.69655
C         63.74503       54.66162       61.74793
C         62.39376       54.82984       62.49101
C         61.43132       55.86534       61.94214
O         61.06546       56.77467       62.66925
O         60.93285       55.80608       60.69127
H         66.13508       54.66395       60.86184
H         63.95856       56.54522       60.72830
H         64.35978       53.97015       62.36438
H         63.57017       54.15610       60.78581
H         62.61763       55.10634       63.54512
H         61.88972       53.83958       62.51827
N         63.95718       57.91873       62.91093
C         63.90119       58.67234       64.14717
H         62.84712       58.71110       64.49892
H         64.51404       58.21581       64.95216
H         64.25566       59.70745       63.96829
H         63.39463       58.27151       62.12206
Ca        61.58131       54.26339       59.22706
O         62.37046       56.86324       57.30240
H         62.41911       57.82129       57.54603
H         62.80248       56.39841       58.06085
O         60.31214       54.69962       55.75443
H         60.19025       55.62542       55.42468
H         59.73436       54.14964       55.16777
O         59.41069       56.58075       58.18324
H         58.43272       56.60477       58.33425
H         59.68791       57.53124       58.19412

Ca 1.0



