%chk=apoCaM-CA-Ng.loop4.water4.frame533.chk
%nprocshared=20
%mem=10GB
%nosave
#b3lyp/svp scf=(tight,noincore,xqc) Test 
#IOP(5/87=12) Density=Current Pop=(MK,readradii) iop(6/33=2) iop(6/42=6)

apoCaM-CA-Ng.loop4.water4.frame533 

   -3  1 
C         80.56862        9.37571       71.78255
C         80.57858        8.84100       73.18174
O         79.78663        9.28917       73.99673
H         81.56378        9.80495       71.54164
H         80.34066        8.55419       71.07181
H         79.80034       10.17055       71.67150
N         81.45768        7.85893       73.52842
C         81.55495        7.28298       74.86696
C         80.25575        6.60662       75.29116
O         80.03374        6.44175       76.48326
C         82.02338        8.33726       75.89608
C         83.30613        8.99572       75.47284
O         83.34380       10.32740       75.28018
O         84.31660        8.33206       75.30306
H         82.09714        7.49441       72.80504
H         82.33610        6.48945       74.84685
H         82.18816        7.84941       76.88152
H         81.24745        9.11725       76.02897
N         79.39675        6.10221       74.35687
C         78.17750        5.36472       74.68451
C         78.35161        3.90530       74.30650
O         79.20307        3.61004       73.47891
C         76.90981        5.98529       73.99738
C         77.12713        6.30161       72.49197
C         76.46823        7.22593       74.76731
C         75.86696        6.78492       71.76807
H         79.65540        6.18028       73.36358
H         78.03570        5.37417       75.77822
H         76.07279        5.26337       74.07680
H         77.47896        5.38356       71.97644
H         77.89717        7.09452       72.37508
H         75.50633        7.62962       74.39174
H         76.29264        6.93207       75.81900
H         77.24965        8.00843       74.71306
H         76.10669        6.96708       70.69906
H         75.06664        6.01862       71.82931
H         75.49514        7.74290       72.18522
N         77.61033        2.89974       74.86311
C         76.61476        3.04641       75.93006
C         77.25721        3.45183       77.24663
O         76.83513        4.43639       77.83827
C         75.86455        1.71672       76.15421
C         75.16024        1.26058       74.90704
O         75.47301        0.07297       74.35460
O         74.30475        1.96107       74.38942
H         77.78545        1.94802       74.50324
H         75.84449        3.79082       75.64456
H         75.10497        1.85100       76.95574
H         76.57586        0.92714       76.48036
N         78.28180        2.72022       77.77003
C         78.87868        2.99033       79.06650
C         77.90884        2.64142       80.16954
O         77.46711        1.50156       80.22103
H         78.65987        1.93055       77.22592
H         79.22423        4.04654       79.11828
H         79.76738        2.33637       79.19771
N         77.53991        3.56416       81.10212
C         76.60689        3.26174       82.18921
C         75.17791        2.96503       81.71512
O         74.35733        2.63762       82.56177
C         76.65540        4.36399       83.28044
C         76.43509        5.77066       82.79115
O         77.41316        6.68578       82.93451
O         75.37759        6.10395       82.29074
H         77.97578        4.49758       81.05760
H         76.96081        2.33850       82.70194
H         77.66858        4.33263       83.73757
H         75.92624        4.13164       84.08761
N         74.80335        3.00258       80.39885
C         73.46957        2.63116       79.93955
C         72.38143        3.61851       80.31852
O         71.23228        3.36592       79.98937
H         75.48629        3.24835       79.67401
H         73.22358        1.61776       80.32378
H         73.47478        2.57908       78.82864
N         72.67112        4.78424       80.95921
C         71.71623        5.83254       81.28999
C         71.07933        6.40592       80.03384
O         69.88175        6.65757       80.01506
C         70.68399        5.37244       82.34393
C         71.34754        4.96651       83.67183
C         70.34337        4.55260       84.72402
N         70.76722        4.21326       85.96293
O         69.14711        4.52523       84.47055
H         73.64530        4.98734       81.18909
H         72.29771        6.67163       81.73550
H         70.08761        4.52369       81.94607
H         69.99253        6.21747       82.55605
H         71.92224        5.83423       84.06272
H         72.04997        4.12233       83.50304
H         71.76953        4.23628       86.20082
H         70.09063        3.93389       86.68909
N         71.85085        6.64975       78.93712
C         71.36511        7.30097       77.72556
C         72.25556        8.47044       77.33320
O         71.98931        9.05195       76.29015
C         71.30949        6.30205       76.52804
C         72.68000        5.68839       76.18363
C         70.27343        5.19961       76.76333
H         72.83705        6.34778       78.95868
H         70.33600        7.69793       77.87329
H         70.96111        6.86546       75.63242
H         73.42608        6.48187       75.96564
H         73.05869        5.05734       77.01392
H         72.59273        5.05543       75.27496
H         70.55214        4.56879       77.63080
H         69.27447        5.65101       76.94609
H         70.19584        4.55687       75.85983
N         73.34785        8.85396       78.06551
C         74.34922        9.75293       77.50797
C         74.23689       11.14325       78.10387
O         73.59362       11.34101       79.12215
C         75.75696        9.13631       77.75302
C         76.90390        9.61920       76.88161
N         78.15945        9.18217       77.12414
O         76.71499       10.35009       75.92427
H         73.54145        8.44025       78.98824
H         74.17785        9.83188       76.41274
H         75.69854        8.04310       77.59162
H         76.01323        9.27681       78.82471
H         78.35660        8.54372       77.90699
H         78.93879        9.49036       76.52499
N         74.85557       12.16176       77.45492
C         74.94961       13.54980       77.89684
C         75.63794       14.38753       76.81039
O         76.12600       13.83735       75.83460
C         75.69659       13.61942       79.25816
C         76.99254       12.82454       79.26599
C         78.10038       13.21569       78.49453
C         77.08999       11.65542       80.04745
C         79.26810       12.44419       78.49419
C         78.25800       10.88710       80.04045
C         79.34904       11.27590       79.26110
O         80.46525       10.51879       79.25115
H         75.27589       11.91519       76.56404
H         73.92338       13.95959       78.01602
H         75.01816       13.18319       80.02198
H         75.87487       14.66900       79.57447
H         78.06676       14.11314       77.89277
H         76.25498       11.32219       80.65119
H         80.11224       12.74580       77.89592
H         78.31105        9.98229       80.63352
H         81.23626       10.74504       78.71102
N         75.69405       15.74564       76.90253
C         76.34247       16.55702       75.87463
C         77.49863       17.30752       76.50235
O         77.25158       18.10504       77.39446
C         75.33916       17.51682       75.20871
C         74.27556       16.74815       74.40602
C         73.38042       17.68670       73.64932
O         73.84870       18.43744       72.80745
O         72.05326       17.68629       73.87497
H         75.26943       16.21431       77.71579
H         76.72852       15.92104       75.06064
H         75.89978       18.16477       74.50098
H         74.85402       18.16773       75.96889
H         73.66723       16.11925       75.09131
H         74.77295       16.08210       73.66680
N         78.80477       17.10600       76.14190
C         79.27025       16.17504       75.10667
C         78.85877       16.64898       73.71856
O         78.30491       17.73251       73.58687
C         80.81232       16.02331       75.18371
C         81.23004       15.35133       76.50352
C         82.71803       15.36555       76.72144
O         83.56282       14.68021       75.92676
O         83.17616       15.99140       77.66394
H         79.51262       17.64243       76.66808
H         78.82825       15.16987       75.28939
H         81.27110       17.03309       75.09906
H         81.19489       15.39953       74.34897
H         80.86193       14.30737       76.51407
H         80.76349       15.88840       77.35518
N         79.09318       15.86281       72.63031
C         78.71702       16.23047       71.27896
H         78.21137       17.21802       71.23061
H         79.62457       16.26967       70.64121
H         78.02389       15.46572       70.86961
H         79.55087       14.94840       72.75902
Ca        82.96197       13.26837       74.27690
O         80.31536       12.11445       74.30589
H         79.59414       12.70790       74.63198
H         80.69306       11.70735       75.12618
O         85.93139       12.06492       75.65987
H         85.75972       11.41137       76.38377
H         86.06418       12.92610       76.13001
O         85.54285       14.95463       73.65896
H         86.39349       14.84736       73.16458
H         85.81580       15.28342       74.55218
O         81.96414       14.17734       71.71435
H         82.34201       15.05220       71.98416
H         82.40959       13.96610       70.85644

Ca 1.0



