%chk=apoCaM-CA-Ng.loop3.water3.frame887.chk
%nprocshared=20
%mem=10GB
%nosave
#b3lyp/svp scf=(tight,noincore,xqc) Test 
#IOP(5/87=12) Density=Current Pop=(MK,readradii) iop(6/33=2) iop(6/42=6)

apoCaM-CA-Ng.loop3.water3.frame887 

   0  1 
C         25.59292       -6.16385        1.40110
C         26.34185       -6.70745        0.22415
O         25.72041       -7.15208       -0.73056
H         24.49699       -6.25120        1.24466
H         25.87568       -6.72429        2.31607
H         25.85057       -5.09160        1.53373
N         27.70264       -6.68263        0.21908
C         28.49571       -7.13189       -0.92304
C         28.29643       -8.64621       -1.14443
O         27.74358       -9.28575       -0.25946
C         29.97109       -6.74140       -0.66206
C         30.87149       -6.66394       -1.85579
O         32.05483       -6.42671       -1.68190
O         30.41268       -6.75173       -3.11351
H         28.17818       -6.28022        1.04280
H         28.13236       -6.55382       -1.78701
H         30.39084       -7.44144        0.09311
H         30.01003       -5.71608       -0.23272
N         28.68928       -9.28770       -2.29070
C         28.49132      -10.73054       -2.51373
C         29.82021      -11.48393       -2.61857
O         29.82742      -12.68963       -2.41111
C         27.58975      -10.94474       -3.75025
C         27.17376      -12.40811       -3.98380
C         26.24627      -12.52596       -5.20279
C         25.79356      -13.97708       -5.42270
N         24.91239      -14.08078       -6.58630
H         29.10906       -8.73347       -3.04477
H         27.96670      -11.16315       -1.63474
H         28.10820      -10.56494       -4.65377
H         26.66383      -10.34558       -3.60382
H         26.64265      -12.78173       -3.08121
H         28.06972      -13.03850       -4.16342
H         26.78369      -12.16884       -6.10888
H         25.34840      -11.88892       -5.04654
H         25.24985      -14.33565       -4.52040
H         26.68274      -14.62766       -5.57839
H         24.06220      -13.48685       -6.44954
H         25.41886      -13.77756       -7.44984
H         24.61291      -15.07587       -6.70262
N         30.98734      -10.83519       -2.88234
C         32.31446      -11.44167       -2.82724
C         33.09486      -10.77485       -1.69821
O         33.62182      -11.49240       -0.86027
C         33.00290      -11.45272       -4.22142
C         32.89461      -10.17554       -5.00325
O         32.20701      -10.14522       -6.01156
O         33.46417       -9.04365       -4.57591
H         30.94976       -9.83462       -3.10292
H         32.25543      -12.51953       -2.55072
H         32.47009      -12.22527       -4.82034
H         34.06190      -11.77769       -4.13432
N         33.10386       -9.41802       -1.53758
C         33.68844       -8.74321       -0.38442
C         34.72142       -7.70594       -0.76523
O         35.27337       -7.09416        0.14070
H         32.61332       -8.82955       -2.21766
H         34.16704       -9.46959        0.30646
H         32.87433       -8.23726        0.17664
N         35.07005       -7.47328       -2.06344
C         36.15386       -6.59494       -2.46804
C         35.68297       -5.55147       -3.47884
O         34.54387       -5.60378       -3.92780
C         37.26210       -7.45946       -3.12195
C         37.80970       -8.54696       -2.21881
N         37.05821       -9.61547       -1.85150
O         38.96964       -8.47672       -1.84204
H         34.61055       -7.99864       -2.81255
H         36.57840       -6.06616       -1.58645
H         38.10093       -6.79207       -3.41071
H         36.87843       -7.94008       -4.05003
H         36.09310       -9.74059       -2.18567
H         37.45399      -10.34882       -1.24495
N         36.55295       -4.59923       -3.92428
C         36.28621       -3.70733       -5.04258
C         35.12160       -2.76361       -4.83504
O         35.16583       -1.92511       -3.94774
H         37.49638       -4.55919       -3.50861
H         36.11211       -4.33711       -5.94177
H         37.18971       -3.09356       -5.24629
N         34.04331       -2.85447       -5.66144
C         32.86412       -1.99249       -5.61905
C         31.71007       -2.78106       -5.02992
O         31.93904       -3.88239       -4.55646
C         32.56907       -1.49813       -7.05434
C         33.60399       -0.50995       -7.53686
C         33.60806        0.80249       -7.03110
C         34.54905       -0.87104       -8.51012
C         34.53454        1.73948       -7.49928
C         35.48660        0.06339       -8.96486
C         35.47894        1.37180       -8.46811
O         36.37737        2.26483       -8.93118
H         34.02912       -3.61863       -6.35508
H         33.00786       -1.12021       -4.94406
H         31.58504       -0.99139       -7.13583
H         32.52147       -2.38526       -7.72347
H         32.87856        1.10675       -6.29021
H         34.56632       -1.87620       -8.91124
H         34.51405        2.75137       -7.11299
H         36.21574       -0.22758       -9.71019
H         36.39657        3.18290       -8.62535
N         30.45566       -2.23244       -4.94793
C         29.32400       -2.83299       -4.23685
C         28.90642       -4.17190       -4.84794
O         29.76477       -5.01340       -5.06534
C         29.63963       -2.95825       -2.71085
C         28.38789       -3.33384       -1.87071
C         30.29161       -1.67497       -2.15022
C         27.27231       -2.27705       -1.84548
H         30.30107       -1.29605       -5.34633
H         28.47654       -2.12298       -4.33361
H         30.38359       -3.77172       -2.57046
H         28.70940       -3.50381       -0.81993
H         27.96005       -4.28397       -2.24685
H         31.26387       -1.47297       -2.64556
H         29.64606       -0.78649       -2.30437
H         30.50311       -1.79250       -1.06623
H         27.63415       -1.31687       -1.42358
H         26.85144       -2.09575       -2.85388
H         26.44510       -2.63282       -1.19733
N         27.59911       -4.48313       -5.08692
C         27.19523       -5.78546       -5.62512
C         26.28037       -5.70447       -6.83254
O         25.98999       -6.74891       -7.39575
C         26.52175       -6.61937       -4.53060
O         25.38077       -5.96389       -4.04925
H         26.87295       -3.80679       -4.80215
H         28.08881       -6.35190       -5.95973
H         27.25477       -6.75884       -3.71759
H         26.24596       -7.62306       -4.92453
H         25.08333       -6.47840       -3.25572
N         25.75057       -4.52778       -7.27589
C         24.82618       -4.49175       -8.40294
C         25.54084       -4.84995       -9.70022
O         26.75808       -4.72539       -9.73676
C         24.23596       -3.08615       -8.51953
H         25.96353       -3.65150       -6.78353
H         23.99887       -5.19254       -8.18254
H         23.51033       -3.03865       -9.34093
H         23.71052       -2.81555       -7.57922
H         25.03803       -2.34121       -8.71118
N         24.89890       -5.23323      -10.84497
C         23.47963       -5.56796      -10.97598
C         23.11598       -5.63114      -12.45670
O         23.77270       -6.38034      -13.16817
C         23.20090       -6.94551      -10.35112
H         25.49282       -5.33719      -11.68367
H         22.85626       -4.82665      -10.45988
H         23.44287       -6.97676       -9.27327
H         22.12479       -7.19983      -10.46388
H         23.80502       -7.73234      -10.85226
N         22.10147       -4.92191      -13.03892
C         21.13307       -4.06315      -12.36076
C         21.75616       -2.87755      -11.64863
O         21.41391       -2.64704      -10.49706
C         19.99924       -3.59060      -13.31806
C         20.33991       -2.54901      -14.40838
C         21.28020       -3.04120      -15.47077
O         22.44294       -2.40057      -15.69743
O         20.97759       -4.00086      -16.16180
H         21.97096       -5.07857      -14.04759
H         20.60961       -4.68964      -11.60239
H         19.21909       -3.11916      -12.67963
H         19.53097       -4.48073      -13.79278
H         20.73953       -1.62726      -13.93798
H         19.39307       -2.26478      -14.91581
N         22.65984       -2.07040      -12.26662
C         23.22623       -0.90716      -11.61855
H         23.93453       -0.39863      -12.30514
H         22.41787       -0.19532      -11.34701
H         23.77823       -1.20188      -10.70468
H         22.95923       -2.28455      -13.22673
Ca        31.98188       -7.37176       -4.58523
O         30.93869       -6.08206       -7.48227
H         30.19821       -5.46417       -7.70645
H         31.01571       -6.67359       -8.27145
O         34.00924       -7.08299       -7.12293
H         34.66156       -7.73938       -6.77091
H         33.43564       -7.60912       -7.73491
O         29.55551       -8.48608       -5.98492
H         29.87864       -9.16668       -5.34510
H         28.63309       -8.76884       -6.20560

Ca 1.0



