%chk=apoCaM-CA-Ng.loop2.water4.frame1466.chk
%nprocshared=20
%mem=10GB
%nosave
#b3lyp/svp scf=(tight,noincore,xqc) Test 
#IOP(5/87=12) Density=Current Pop=(MK,readradii) iop(6/33=2) iop(6/42=6)

apoCaM-CA-Ng.loop2.water4.frame1466 

   -2  1 
C         61.70503       83.76740       78.65043
C         62.27198       82.53875       77.98527
O         62.82548       81.71582       78.69949
H         60.94585       83.45010       79.39801
H         62.51511       84.31249       79.17653
H         61.21485       84.47048       77.95243
N         62.16575       82.28330       76.64745
C         61.50883       83.16408       75.68448
C         62.28362       84.45894       75.40805
O         61.68300       85.39405       74.89662
C         61.23064       82.41928       74.35814
C         62.46493       81.84394       73.70784
O         62.52252       80.55592       73.34383
O         63.42522       82.54556       73.46040
H         62.53199       81.37694       76.31595
H         60.50969       83.43264       76.09313
H         60.74227       83.12529       73.65216
H         60.51701       81.58731       74.54448
N         63.61975       84.57058       75.66731
C         64.41979       85.77669       75.41309
C         64.60382       86.15680       73.93032
O         65.32833       87.11147       73.68186
C         65.81422       85.57819       76.03121
H         64.09362       83.76173       76.09659
H         63.95034       86.63466       75.94251
H         66.34399       84.73558       75.53589
H         66.42891       86.49831       75.92828
H         65.71974       85.35567       77.11554
N         63.99814       85.49480       72.89933
C         64.23550       85.81368       71.48684
C         63.26132       85.17166       70.47977
O         63.35225       85.55434       69.32067
C         65.69294       85.45726       71.09389
C         66.00280       83.99512       71.29404
O         66.96950       83.62818       72.15675
O         65.39369       83.13772       70.67377
H         63.33659       84.77630       73.14227
H         64.08217       86.90909       71.36534
H         66.40223       86.04999       71.70661
H         65.88266       85.72673       70.03192
N         62.31994       84.22760       70.79616
C         61.36733       83.69569       69.83444
C         61.51700       82.20651       69.62869
O         62.40211       81.58280       70.19698
H         62.22295       83.85864       71.74209
H         61.46864       84.18217       68.84136
H         60.34316       83.90265       70.21101
N         60.65592       81.57965       68.77974
C         60.70263       80.15755       68.45894
C         62.04945       79.76119       67.89553
O         62.58094       80.47948       67.05826
C         59.58725       79.74030       67.46358
C         59.78512       80.19010       66.02378
N         59.73482       81.49106       65.64986
O         59.98665       79.33889       65.16984
H         59.91834       82.15686       68.36052
H         60.51463       79.58989       69.39777
H         58.59267       80.06434       67.83671
H         59.58329       78.62617       67.45581
H         59.53720       82.24675       66.31298
H         59.87685       81.75029       64.66253
N         62.63343       78.58677       68.26072
C         63.90162       78.16222       67.70218
C         65.04363       79.03096       68.18910
O         64.83627       79.83859       69.08372
H         62.14273       77.95131       68.90694
H         63.82450       78.19124       66.59445
H         64.10410       77.11644       68.01364
N         66.30062       78.94264       67.66982
C         66.67551       78.08750       66.54434
C         66.42369       76.62868       66.87103
O         65.73724       75.96498       66.10615
C         68.14428       78.32457       66.11416
C         68.37380       79.76881       65.63991
O         69.02357       78.02754       67.16851
H         67.01977       79.55168       68.08919
H         66.05343       78.35943       65.66118
H         68.33962       77.65162       65.24427
H         69.84476       77.64406       66.76303
H         68.21132       80.50260       66.45619
H         69.41669       79.88736       65.27938
H         67.68438       80.01526       64.80401
N         66.87365       76.09426       68.04052
C         66.54842       74.73868       68.48733
C         65.61962       74.83146       69.70024
O         65.42874       75.93637       70.18445
C         67.86137       73.95284       68.81030
C         68.62340       74.56290       70.02222
C         68.75097       73.87756       67.55630
C         69.83308       73.74249       70.46802
H         67.39988       76.70715       68.67996
H         65.99306       74.20677       67.68560
H         67.58825       72.91579       69.08132
H         67.93551       74.60662       70.89203
H         68.96615       75.59444       69.80126
H         68.18361       73.43439       66.71115
H         69.10332       74.88879       67.25952
H         69.63556       73.23240       67.72936
H         70.61694       73.71460       69.68558
H         70.27791       74.20685       71.37330
H         69.52032       72.70991       70.71931
N         64.99734       73.76935       70.29224
C         64.97042       72.39468       69.81066
C         65.75155       71.48259       70.73545
O         65.59185       71.55157       71.94548
C         63.51549       71.90509       69.60809
C         62.60990       71.86161       70.81978
O         63.02321       72.24175       72.04315
O         61.46257       71.46930       70.68297
H         64.46758       73.97330       71.15225
H         65.42487       72.32650       68.80221
H         63.55854       70.87652       69.18595
H         63.03473       72.56254       68.85139
N         66.62177       70.58066       70.20233
C         67.45607       69.68448       70.99316
C         68.91395       69.89281       70.61243
O         69.16057       70.29982       69.48452
C         67.05161       68.22726       70.70709
C         65.65799       67.93138       71.20609
C         65.39540       67.91260       72.58776
C         64.61341       67.66072       70.30616
C         64.11156       67.62531       73.05942
C         63.32767       67.38274       70.78263
C         63.07771       67.36251       72.15763
H         66.69073       70.51374       69.17487
H         67.31256       69.88980       72.06414
H         67.74834       67.51642       71.20148
H         67.12377       68.05537       69.60989
H         66.18733       68.10836       73.29967
H         64.79033       67.67180       69.23817
H         63.91916       67.60422       74.12451
H         62.52465       67.18038       70.08592
H         62.08374       67.14136       72.52471
N         69.95884       69.60597       71.45255
C         69.88839       69.12959       72.83029
C         69.07994       70.01036       73.75726
O         68.34056       69.48577       74.57673
C         71.35213       69.18062       73.29553
C         72.09716       68.86727       72.02533
C         71.33762       69.71903       71.01682
H         69.51738       68.08012       72.83951
H         71.63465       70.22597       73.56384
H         71.57878       68.52510       74.16354
H         73.19166       69.05174       72.05486
H         71.91682       67.79321       71.78933
H         71.63324       70.79129       71.05195
H         71.51163       69.30002       70.00199
N         69.16995       71.36827       73.67321
C         68.49752       72.26205       74.60335
C         69.17932       72.14345       75.95979
O         70.37073       72.41092       76.03042
C         68.56071       73.71702       74.08371
C         68.00042       74.72172       75.10262
C         67.98090       76.11681       74.56195
O         66.83216       76.81113       74.57422
O         69.00347       76.64472       74.15440
H         69.74840       71.77642       72.92409
H         67.41958       71.99866       74.64723
H         67.97202       73.76996       73.14085
H         69.61249       73.99781       73.85669
H         68.64168       74.72276       76.00860
H         66.96838       74.43256       75.39698
N         68.52391       71.76927       77.09426
C         67.11770       71.43440       77.14256
H         66.50420       72.30057       76.81707
H         66.90948       70.55775       76.49552
H         66.83049       71.17336       78.18289
H         69.05645       71.72573       77.97686
Ca        64.33402       80.17580       72.04843
O         67.53599       80.06494       72.12495
H         67.27557       80.96807       71.81536
H         67.90410       80.20892       73.03261
O         62.33501       78.23364       71.46788
H         62.40357       77.24694       71.49388
H         61.37993       78.42849       71.63897
O         65.34179       77.55034       72.39308
H         66.15769       77.72785       71.86098
H         65.40236       78.18418       73.15028
O         65.50195       80.86820       74.85521
H         65.75576       81.82533       74.86643
H         66.28045       80.39843       75.24610

Ca 1.0



