%chk=apoCaM-CA-Ng.loop3.water6.frame1175.chk
%nprocshared=20
%mem=10GB
%nosave
#b3lyp/svp scf=(tight,noincore,xqc) Test 
#IOP(5/87=12) Density=Current Pop=(MK,readradii) iop(6/33=2) iop(6/42=6)

apoCaM-CA-Ng.loop3.water6.frame1175 

   0  1 
C         -2.99339       40.95471       -0.63759
C         -2.17808       40.13729       -1.59515
O         -1.50720       40.70648       -2.44012
H         -4.06609       40.68809       -0.73107
H         -2.65472       40.75467        0.40118
H         -2.87235       42.04052       -0.84448
N         -2.17140       38.77923       -1.50623
C         -1.34510       37.93498       -2.36411
C         -1.68667       38.11105       -3.84211
O         -0.79959       38.48265       -4.59449
C         -1.34936       36.46589       -1.86698
C         -2.68205       35.76752       -1.80423
O         -3.27610       35.45747       -2.82267
O         -3.18549       35.40012       -0.60982
H         -2.74084       38.34035       -0.76606
H         -0.28803       38.26010       -2.23583
H         -0.93914       36.48568       -0.83257
H         -0.65731       35.85526       -2.48140
N         -2.94161       37.89646       -4.32872
C         -3.30738       38.08753       -5.73692
C         -2.48633       37.17752       -6.64043
O         -2.59930       35.96707       -6.49793
C         -4.80092       37.75093       -5.95707
C         -5.77069       38.67364       -5.20187
C         -7.20772       38.15591       -5.35100
C         -8.20711       39.04560       -4.60333
N         -9.55906       38.49343       -4.69031
H         -3.66908       37.61358       -3.66114
H         -3.13061       39.14807       -6.01691
H         -4.96820       36.70026       -5.62761
H         -5.04047       37.81608       -7.04208
H         -5.68366       39.70722       -5.60222
H         -5.53072       38.69559       -4.11915
H         -7.25985       37.12775       -4.92749
H         -7.48576       38.11101       -6.42676
H         -8.19271       40.06791       -5.04219
H         -7.91456       39.11638       -3.53188
H         -9.58792       37.54692       -4.24480
H        -10.22063       39.12363       -4.18233
H         -9.85719       38.42010       -5.69001
N         -1.62825       37.68855       -7.58162
C         -0.80670       36.83313       -8.44678
C          0.65899       36.75441       -7.95045
O          1.57025       37.67982       -8.48248
C         -1.00945       37.09117       -9.96242
C         -0.85480       38.49632      -10.49517
O         -0.63003       39.54956       -9.69441
O         -0.98855       38.68937      -11.69303
H         -1.51290       38.70962       -7.63119
H         -1.12733       35.77797       -8.31454
H         -2.04386       36.78091      -10.22351
H         -0.30671       36.42853      -10.51303
N          0.68325       36.64854       -6.48575
C          1.99331       36.40454       -5.87506
C          1.75021       35.99133       -4.42835
O          1.15480       34.93928       -4.24027
H          0.06922       35.83053       -6.26019
H          2.60583       37.31973       -5.97494
H          2.53050       35.58097       -6.39474
N          2.09023       36.73972       -3.33938
C          2.81824       37.99879       -3.37524
C          2.54368       38.78885       -2.09669
O          2.75775       38.24836       -1.02008
C          4.32400       37.69858       -3.49050
C          5.13842       38.96425       -3.57718
N          6.02093       39.28957       -2.60460
O          4.99638       39.70661       -4.53584
H          1.79316       36.37926       -2.41788
H          2.48548       38.59288       -4.24449
H          4.52808       37.08576       -4.39376
H          4.63407       37.10160       -2.60395
H          6.15072       38.68330       -1.78181
H          6.56893       40.16015       -2.66874
N          2.09208       40.07623       -2.09981
C          1.87254       40.85872       -3.30658
C          1.49928       42.27172       -2.95406
O          2.26321       42.90819       -2.23995
H          1.93628       40.52678       -1.18308
H          1.08053       40.38311       -3.91536
H          2.81095       40.90457       -3.89477
N          0.32687       42.82423       -3.38218
C         -0.10102       44.14411       -2.93146
C         -1.56739       44.42189       -3.26244
O         -2.18796       43.67846       -4.01154
C          0.82270       45.24983       -3.51678
C          0.80277       46.51537       -2.69752
C          0.33964       47.72888       -3.22958
C          1.27914       46.48256       -1.37475
C          0.34457       48.88772       -2.44258
C          1.28604       47.63837       -0.59418
C          0.81618       48.84645       -1.12469
O          0.81647       49.96989       -0.37940
H         -0.29594       42.25083       -3.96484
H         -0.02970       44.10942       -1.82179
H          0.54501       45.42520       -4.57980
H          1.88348       44.92859       -3.52210
H         -0.02958       47.77825       -4.24601
H          1.65322       45.55959       -0.94868
H         -0.01997       49.81902       -2.85655
H          1.65920       47.59198        0.42142
H          1.13820       49.97937        0.53387
N         -2.20129       45.47003       -2.67239
C         -3.61530       45.77371       -2.86487
C         -3.91222       46.16925       -4.30497
O         -3.23936       47.04545       -4.82932
C         -4.07342       46.88182       -1.85913
C         -3.43227       48.26833       -2.14523
C         -5.61176       46.97084       -1.82975
C         -3.63964       49.28258       -1.02157
H         -1.66619       46.03238       -1.99664
H         -4.19339       44.86066       -2.59565
H         -3.74730       46.54243       -0.84999
H         -3.83806       48.69582       -3.08672
H         -2.33863       48.15437       -2.26324
H         -6.04632       45.97592       -1.59303
H         -5.96078       47.66716       -1.04186
H         -6.01099       47.30824       -2.80930
H         -3.20017       48.89764       -0.07700
H         -3.12543       50.23048       -1.28775
H         -4.71228       49.51100       -0.86637
N         -4.95545       45.60278       -4.97951
C         -5.41461       46.07632       -6.28757
C         -6.61216       45.26429       -6.74724
O         -7.56150       45.16714       -5.98597
C         -5.86488       47.55423       -6.19212
O         -6.27654       48.01119       -7.45134
H         -5.48340       44.85012       -4.51024
H         -4.58996       45.99791       -7.02960
H         -5.04128       48.20939       -5.84932
H         -6.70250       47.63104       -5.45874
H         -6.81061       48.83249       -7.29219
N         -6.66481       44.70345       -7.99488
C         -7.82379       43.97178       -8.51410
C         -9.08565       44.83470       -8.63069
O        -10.14296       44.26910       -8.87086
C         -8.08870       42.71526       -7.66312
H         -5.85216       44.81041       -8.62015
H         -7.59004       43.60566       -9.53831
H         -8.90458       42.11052       -8.11514
H         -7.17716       42.08199       -7.62985
H         -8.39097       42.96472       -6.62638
N         -9.06265       46.19826       -8.47414
C        -10.24755       47.06182       -8.46666
C        -11.14505       46.80965       -7.25480
O        -12.20415       47.41536       -7.16706
C        -11.02239       46.96668       -9.78976
H         -8.16137       46.66961       -8.34080
H         -9.90710       48.11862       -8.38308
H        -10.34480       47.19702      -10.63901
H        -11.47281       45.96731       -9.94530
H        -11.84674       47.71200       -9.79840
N        -10.75678       45.96745       -6.25418
C        -11.53323       45.66745       -5.06179
C        -11.82564       46.93942       -4.28719
O        -12.98888       47.22796       -4.04384
C        -10.73624       44.65658       -4.19137
C        -11.48622       44.06983       -2.98652
C        -12.59602       43.13580       -3.39268
O        -13.57366       43.54712       -3.99512
O        -12.51635       41.82824       -3.07788
H         -9.84980       45.50675       -6.32826
H        -12.48151       45.19622       -5.38889
H         -9.81420       45.15868       -3.82304
H        -10.40900       43.79958       -4.82229
H        -11.87186       44.87340       -2.32493
H        -10.74786       43.47474       -2.40509
N        -10.80973       47.76280       -3.89763
C        -11.01479       49.00495       -3.17899
H        -12.08501       49.19318       -2.95138
H        -10.45265       48.97452       -2.22250
H        -10.63421       49.85027       -3.79065
H         -9.83852       47.51416       -4.13879
Ca         1.29565       39.83458       -7.84443
O          2.00042       43.01749       -6.46210
H          2.90297       43.20398       -6.10034
H          1.56557       43.90550       -6.51360
O          2.79360       39.32902      -10.91788
H          2.16554       38.72957      -11.39395
H          3.59347       38.76929      -10.75230
O         -0.58984       41.18965       -6.23963
H         -0.01050       40.47539       -5.87914
H         -1.50022       40.90956       -5.97894
O          4.03629       40.22698       -7.24889
H          4.75613       39.88248       -7.83396
H          4.38705       41.08022       -6.89034
O          2.23085       42.50486      -10.57904
H          3.07957       42.99486      -10.72053
H          1.63068       42.83636      -11.29358
O         -0.42624       42.75082       -8.90053
H         -1.12704       42.80614       -9.59779
H         -0.37098       43.66729       -8.52979

Ca 1.0



