%chk=apoCaM-CA-Ng.loop4.water3.frame230.chk
%nprocshared=20
%mem=10GB
%nosave
#b3lyp/svp scf=(tight,noincore,xqc) Test 
#IOP(5/87=12) Density=Current Pop=(MK,readradii) iop(6/33=2) iop(6/42=6)

apoCaM-CA-Ng.loop4.water3.frame230 

   -3  1 
C         22.17238       38.48999       91.69585
C         21.35237       39.59871       92.34821
O         22.25263       40.51576       92.89203
H         22.84077       38.01995       92.44707
H         21.50509       37.71272       91.27081
H         22.79911       38.91510       90.88037
N         20.49260       40.23577       91.33478
C         19.62616       41.34523       91.78904
C         20.44692       42.55128       92.22153
O         20.80620       42.65305       93.38048
C         18.44453       40.90399       92.69525
C         18.80360       40.27433       94.01072
O         19.35814       41.00803       94.98716
O         18.51857       39.10695       94.22823
H         19.88327       39.50069       90.90467
H         19.09745       41.69080       90.87276
H         17.85466       40.15939       92.11567
H         17.77716       41.77070       92.89269
N         20.88276       43.42826       91.26381
C         21.80954       44.55298       91.42576
C         21.18930       45.73412       92.17272
O         21.02083       46.77064       91.54349
C         23.19994       44.10433       91.96380
C         24.23012       45.26662       92.00670
C         23.76578       42.93584       91.12960
C         24.55742       45.91962       90.65656
H         20.58670       43.24408       90.29261
H         21.99367       44.92328       90.39265
H         23.07852       43.73789       93.00472
H         25.18203       44.87116       92.41597
H         23.86372       46.05677       92.69598
H         23.89729       43.21948       90.06589
H         24.74389       42.60599       91.54105
H         23.08503       42.06480       91.14770
H         23.66283       46.39533       90.20755
H         25.31792       46.71352       90.81057
H         24.98376       45.18578       89.94284
N         20.80004       45.67553       93.47990
C         20.11422       46.78448       94.13126
C         21.06388       47.92998       94.46978
O         20.81933       49.01228       93.95438
C         19.26193       46.31040       95.32945
C         18.16910       45.37335       94.87912
O         18.09740       44.12356       95.37252
O         17.33165       45.74750       94.07276
H         20.92205       44.81263       94.01489
H         19.35858       47.19051       93.41744
H         18.77544       47.19143       95.80214
H         19.87135       45.79848       96.09215
N         22.15256       47.84866       95.29636
C         22.63526       46.64420       95.96861
C         23.87104       46.90831       96.83504
O         24.29777       48.05177       96.91519
H         22.67476       48.72848       95.42372
H         22.88564       45.89921       95.19020
H         21.85162       46.26415       96.63398
N         24.55073       45.93653       97.52327
C         24.28045       44.50037       97.57005
C         24.27985       43.91678       96.16710
O         23.26501       43.38606       95.73820
C         23.02237       44.18783       98.40946
C         22.85790       42.71823       98.72231
O         21.83888       42.32587       99.50866
O         23.64049       41.88131       98.29697
H         25.38469       46.24583       98.04847
H         25.10976       44.02136       98.13845
H         22.10499       44.55049       97.91541
H         23.12480       44.71132       99.38418
N         25.36911       44.00003       95.35347
C         26.66064       44.53512       95.75104
C         26.99250       45.79976       95.01245
O         26.18843       46.29731       94.23757
H         25.28792       43.64222       94.38984
H         27.43117       43.76537       95.52957
H         26.73229       44.75364       96.82995
N         28.22022       46.35194       95.18891
C         28.71370       47.46821       94.40100
C         29.65172       46.95129       93.32061
O         30.11984       47.75733       92.52922
C         29.36517       48.51762       95.32159
C         28.31166       49.17580       96.23374
C         28.88631       50.20066       97.18152
N         28.05903       50.89433       97.99759
O         30.08988       50.41252       97.22127
H         28.88380       45.87936       95.82424
H         27.88625       47.96174       93.84321
H         29.82966       49.31762       94.70393
H         30.16253       48.03330       95.92818
H         27.79237       48.40126       96.83779
H         27.56079       49.68411       95.58951
H         27.04086       50.73489       97.97174
H         28.43379       51.59744       98.65167
N         29.89359       45.60977       93.16772
C         30.60674       45.04247       92.03243
C         31.88496       44.32407       92.44680
O         32.62012       43.93022       91.55074
C         29.65095       44.12974       91.20713
C         28.45406       44.93799       90.67328
C         29.13542       42.91792       92.00390
H         29.50716       44.93672       93.83904
H         30.93963       45.85997       91.35514
H         30.21391       43.74495       90.32843
H         28.80889       45.78824       90.05289
H         27.80374       44.29699       90.04060
H         27.83719       45.34051       91.50624
H         28.50634       42.27699       91.35029
H         29.98050       42.30421       92.37845
H         28.50796       43.23025       92.86406
N         32.26093       44.17419       93.75536
C         33.59517       43.72011       94.14224
C         33.61152       42.48462       95.04105
O         34.70651       42.08950       95.41389
C         34.28126       44.87593       94.91177
C         34.28138       46.18002       94.14980
N         34.92596       46.29867       92.96694
O         33.69361       47.14547       94.61546
H         31.63678       44.49164       94.51128
H         34.20580       43.48278       93.24408
H         35.33141       44.60752       95.15789
H         33.73478       45.03106       95.87023
H         35.43390       45.50122       92.55956
H         34.92029       47.19639       92.45963
N         32.48463       41.83825       95.47130
C         32.54387       40.80819       96.52112
C         31.19369       40.15485       96.76349
O         30.20559       40.86709       96.86001
C         33.02356       41.45364       97.85588
C         34.40692       41.00576       98.25479
C         34.61640       39.67430       98.65319
C         35.48673       41.90264       98.26202
C         35.88372       39.24849       99.05795
C         36.75846       41.47031       98.65160
C         36.96075       40.14608       99.05672
O         38.18900       39.74995       99.44676
H         31.56650       42.12991       95.10548
H         33.23944       39.99583       96.21149
H         32.36012       41.18542       98.70869
H         32.95573       42.56144       97.77618
H         33.79267       38.97102       98.66711
H         35.34728       42.93238       97.95739
H         36.02549       38.22292       99.37550
H         37.58642       42.16755       98.64440
H         38.36629       38.84767       99.74916
N         31.12027       38.79942       96.98426
C         29.90312       38.03336       97.26737
C         29.07916       37.73676       96.02924
O         28.72619       36.57603       95.85324
C         29.04804       38.57169       98.44998
C         29.41997       37.89707       99.78157
C         28.55529       38.39662      100.90335
O         28.61343       39.56498      101.25059
O         27.71356       37.55510      101.53533
H         32.00198       38.26440       96.98626
H         30.22178       37.00844       97.57182
H         27.98221       38.30398       98.27602
H         29.08799       39.67380       98.53474
H         30.48803       38.06191      100.03275
H         29.24789       36.80117       99.67244
N         28.72599       38.68648       95.12099
C         27.88996       38.36204       93.97028
C         28.54992       37.35630       93.02662
O         27.86974       36.87595       92.12986
C         27.50289       39.62377       93.16421
C         26.92775       40.80223       93.97622
C         25.74124       40.44273       94.81783
O         24.66454       40.96618       94.59782
O         25.86894       39.59763       95.85885
H         29.02986       39.65098       95.26140
H         26.95836       37.89937       94.36534
H         26.75505       39.32406       92.39650
H         28.40336       40.00430       92.63513
H         26.63781       41.59134       93.24914
H         27.69707       41.24614       94.63910
N         29.86138       36.99374       93.14775
C         30.47737       36.02604       92.26699
H         31.54652       35.89396       92.54015
H         29.96479       35.04536       92.36386
H         30.41957       36.37706       91.21544
H         30.45966       37.41338       93.87250
Ca        22.01320       40.37772       95.15633
O         22.84302       37.60779       95.94056
H         23.58113       38.26661       95.91794
H         22.68790       37.37959       94.98984
O         21.11473       39.63449       97.95489
H         20.54923       40.08117       98.63360
H         21.99371       39.52158       98.39670
O         20.31866       42.72581       96.96030
H         19.72374       43.29916       97.50504
H         20.48144       43.24576       96.13399

Ca 1.0



