%chk=apoCaM-CA-Ng.loop2.water4.frame1076.chk
%nprocshared=20
%mem=10GB
%nosave
#b3lyp/svp scf=(tight,noincore,xqc) Test 
#IOP(5/87=12) Density=Current Pop=(MK,readradii) iop(6/33=2) iop(6/42=6)

apoCaM-CA-Ng.loop2.water4.frame1076 

   -2  1 
C         33.17567       52.72277       34.42145
C         31.82840       53.37465       34.25347
O         31.41221       53.56194       33.11968
H         33.87087       53.39361       34.96587
H         33.05734       51.77050       34.98181
H         33.62319       52.48373       33.43317
N         31.04135       53.71944       35.31401
C         31.41693       53.54155       36.71284
C         31.17444       54.83887       37.48210
O         31.64139       55.86847       37.01475
C         30.74295       52.25610       37.24928
C         29.24638       52.19657       37.05616
O         28.76594       51.33819       36.33318
O         28.42531       53.05397       37.68727
H         30.09991       54.09143       35.11370
H         32.50726       53.36160       36.80007
H         31.00449       52.08824       38.31402
H         31.17982       51.40838       36.67591
N         30.47897       54.88125       38.66034
C         30.18286       56.10260       39.40094
C         29.34669       57.03355       38.54055
O         29.73317       58.16777       38.29169
C         31.46497       56.74819       39.94978
H         30.11829       54.01314       39.07244
H         29.56922       55.82805       40.28920
H         32.13651       57.09472       39.13930
H         31.20520       57.61949       40.58905
H         32.01332       56.01335       40.57803
N         28.15528       56.58642       38.05674
C         27.28536       57.36901       37.18764
C         25.85108       56.85002       37.27629
O         25.62190       55.66748       37.06782
C         27.79184       57.35339       35.71345
C         27.80430       55.98928       35.05954
O         27.96636       55.88782       33.85399
O         27.57216       54.89058       35.79718
H         27.85563       55.63728       38.32698
H         27.27982       58.42852       37.52709
H         28.80554       57.80030       35.63218
H         27.09363       57.99425       35.13053
N         24.80759       57.67608       37.56541
C         23.44271       57.16602       37.56188
C         23.00245       56.68154       36.18027
O         21.96558       56.04148       36.08990
H         24.97513       58.67202       37.77408
H         22.73414       57.94952       37.90430
H         23.39263       56.32209       38.28483
N         23.71155       56.99448       35.05593
C         23.33526       56.59289       33.70226
C         23.60970       55.11824       33.44157
O         24.70462       54.65569       33.72546
C         24.13132       57.42121       32.67072
C         23.80876       58.90158       32.70973
N         24.40938       59.74435       31.83982
O         23.00026       59.34625       33.51276
H         24.52838       57.61489       35.14858
H         22.26171       56.82225       33.51772
H         23.87272       57.05077       31.65951
H         25.22334       57.27740       32.82711
H         25.08934       59.39174       31.15115
H         24.18952       60.75162       31.85149
N         22.68726       54.35875       32.78018
C         22.90177       52.97555       32.35842
C         21.76135       52.08266       32.79841
O         20.88000       52.56469       33.49683
H         21.80533       54.80681       32.48780
H         23.86798       52.57201       32.73068
H         22.92186       52.96732       31.25536
N         21.66345       50.76289       32.45094
C         22.61645       50.00311       31.63649
C         22.66250       50.49859       30.19696
O         21.64641       50.47149       29.51568
C         22.22234       48.50050       31.64765
C         23.16039       47.62895       30.80068
O         22.24376       48.03759       32.97420
H         20.84821       50.25346       32.82889
H         23.62351       50.08404       32.10271
H         21.18960       48.41049       31.23110
H         21.60792       47.27694       33.02753
H         24.20385       47.70399       31.17123
H         22.83323       46.56879       30.85495
H         23.13045       47.93288       29.73280
N         23.83799       50.93811       29.66600
C         23.98177       51.38195       28.28287
C         24.03771       50.17555       27.34223
O         24.95613       49.38287       27.50694
C         25.28420       52.22821       28.11764
C         25.32425       53.44995       29.07696
C         25.48076       52.69029       26.65720
C         24.13956       54.40834       28.93632
H         24.66291       50.97303       30.28340
H         23.15984       52.07152       28.04300
H         26.16297       51.59333       28.37100
H         26.26418       54.01334       28.88958
H         25.35956       53.11134       30.13283
H         24.63069       53.30843       26.30439
H         26.41627       53.28098       26.56225
H         25.57839       51.81914       25.97665
H         23.18232       53.92889       29.21455
H         24.28762       55.27463       29.61260
H         24.04789       54.76069       27.89645
N         23.19112       49.96872       26.28578
C         22.01152       50.76840       25.96049
C         22.31566       51.84397       24.92177
O         23.40385       51.88644       24.37396
C         20.80030       49.86860       25.60241
C         20.97079       49.00869       24.37283
O         20.23342       49.16646       23.41339
O         21.87656       48.01232       24.34518
H         23.43501       49.19554       25.65337
H         21.68292       51.31617       26.85796
H         19.91139       50.51877       25.45380
H         20.57447       49.20180       26.46250
N         21.37843       52.81276       24.69664
C         21.56410       54.01142       23.87047
C         20.30743       54.86410       24.00243
O         19.23610       54.32654       23.77336
C         21.84247       53.69353       22.37773
C         22.09402       54.98334       21.61552
C         21.02099       55.79159       21.19094
C         23.40943       55.42060       21.37553
C         21.26023       57.01341       20.55523
C         23.64344       56.64729       20.74378
C         22.57020       57.44402       20.33728
H         20.49514       52.72325       25.21814
H         22.44468       54.56690       24.25379
H         21.02532       53.11096       21.89909
H         22.75754       53.06959       22.31951
H         19.99769       55.48306       21.35973
H         24.25417       54.82739       21.70166
H         20.42890       57.63194       20.24146
H         24.65794       56.98665       20.57926
H         22.75320       58.39664       19.85647
N         20.32746       56.19692       24.33377
C         21.49710       57.05660       24.45782
C         22.16964       56.95260       25.81872
O         21.83784       56.05937       26.58838
C         20.89526       58.44731       24.20309
C         19.55706       58.33767       24.89430
C         19.09781       56.96444       24.42705
H         22.25671       56.88391       23.66574
H         21.51983       59.31493       24.48990
H         20.68972       58.54276       23.11143
H         19.74692       58.29530       25.98924
H         18.83643       59.15579       24.68660
H         18.37490       56.53819       25.15535
H         18.64012       57.01373       23.41467
N         23.15243       57.84053       26.15719
C         23.93084       57.79483       27.39371
C         25.07317       58.81318       27.35720
O         25.15164       59.66191       28.23186
C         23.04539       57.89784       28.67799
C         22.31618       59.21769       29.02012
C         21.32686       59.68410       27.99735
O         21.70723       60.08740       26.91227
O         20.01711       59.74204       28.30519
H         23.39949       58.56740       25.46704
H         24.42785       56.81142       27.43637
H         23.71702       57.69206       29.53344
H         22.29322       57.08490       28.68036
H         23.02640       60.04266       29.21805
H         21.77138       59.03732       29.97338
N         26.03545       58.80786       26.38699
C         26.13929       57.85136       25.30163
H         27.12775       57.35014       25.35352
H         25.36763       57.06049       25.32901
H         26.06033       58.38829       24.33329
H         26.76401       59.53763       26.42385
Ca        26.64063       52.97379       35.09535
O         25.33877       50.36421       35.52786
H         24.63839       49.85873       35.04431
H         26.12359       49.76071       35.53861
O         25.46764       52.19692       38.46631
H         25.94500       51.34770       38.64387
H         25.32648       52.59490       39.36193
O         23.29997       52.72384       36.18996
H         22.69804       53.42298       36.54829
H         23.05520       51.90672       36.69291
O         27.48579       51.97519       32.57685
H         27.97076       52.79229       32.85860
H         27.62616       51.33296       33.31851

Ca 1.0



