%chk=apoCaM-CA-Ng.loop4.water3.frame272.chk
%nprocshared=20
%mem=10GB
%nosave
#b3lyp/svp scf=(tight,noincore,xqc) Test 
#IOP(5/87=12) Density=Current Pop=(MK,readradii) iop(6/33=2) iop(6/42=6)

apoCaM-CA-Ng.loop4.water3.frame272 

   -3  1 
C         45.75614       24.05336        1.94668
C         46.56663       23.51587        0.80892
O         47.52575       22.80462        1.06140
H         44.71397       23.68139        1.86790
H         46.18049       23.71835        2.91885
H         45.76147       25.16217        1.91848
N         46.21849       23.79445       -0.48197
C         46.94103       23.29108       -1.64542
C         46.98669       21.78134       -1.65286
O         48.05840       21.22130       -1.56884
C         48.29620       24.02038       -1.89602
C         49.22187       24.36030       -0.74167
O         49.88076       23.45877        0.02002
O         49.42788       25.54212       -0.51189
H         45.37258       24.35959       -0.65048
H         46.35757       23.53504       -2.56305
H         48.00659       25.00678       -2.32652
H         48.85816       23.49694       -2.69919
N         45.82245       21.07629       -1.79000
C         45.66149       19.62007       -1.88202
C         46.20391       19.07145       -3.21186
O         45.39838       18.62260       -4.01581
C         46.16008       18.88414       -0.60389
C         45.80937       17.36764       -0.60250
C         45.58813       19.55835        0.65956
C         44.31013       17.03632       -0.57188
H         44.95010       21.62587       -1.83786
H         44.56264       19.45624       -1.91941
H         47.26693       18.96468       -0.55294
H         46.27763       16.89837        0.29140
H         46.24316       16.88251       -1.49758
H         45.94191       20.60476        0.74511
H         44.47911       19.57908        0.64372
H         45.91507       19.02034        1.56696
H         43.78438       17.43560       -1.46085
H         44.17498       15.93584       -0.58020
H         43.83018       17.42427        0.35009
N         47.52616       19.11793       -3.54704
C         48.03761       18.75910       -4.86399
C         48.01655       17.26107       -5.12565
O         47.50116       16.88690       -6.16950
C         49.44577       19.35679       -5.10648
C         49.39817       20.86468       -5.13278
O         50.14303       21.58691       -4.27899
O         48.69752       21.44296       -5.94868
H         48.20852       19.47253       -2.87766
H         47.40159       19.24352       -5.64073
H         49.81691       19.02674       -6.10111
H         50.17370       19.02135       -4.34292
N         48.55263       16.31672       -4.29847
C         49.09871       16.57748       -2.97394
C         49.55598       15.29703       -2.29786
O         48.95163       14.26746       -2.56604
H         48.52516       15.34293       -4.63871
H         48.30427       17.00877       -2.33995
H         49.91025       17.29976       -3.05060
N         50.54139       15.21984       -1.35238
C         51.34909       16.28284       -0.75766
C         50.47312       17.32365       -0.05415
O         49.93489       18.18849       -0.72679
C         52.38935       16.86603       -1.74495
C         53.38055       17.76560       -1.06093
O         54.14620       17.29219       -0.05934
O         53.52139       18.91927       -1.43085
H         50.71948       14.27690       -0.96884
H         51.96736       15.77413        0.00954
H         51.92091       17.42444       -2.57257
H         52.95978       16.02461       -2.19340
N         50.25750       17.33184        1.29797
C         50.79760       16.36401        2.23850
C         50.26331       14.96641        2.01089
O         49.39135       14.76542        1.17834
H         49.67075       18.08221        1.69013
H         50.52995       16.65868        3.27655
H         51.90561       16.37161        2.16564
N         50.78586       13.93185        2.72356
C         50.42197       12.53490        2.48834
C         48.95754       12.19992        2.77388
O         48.55378       11.10089        2.41787
C         51.39507       11.57839        3.22698
C         51.45526       11.75149        4.75954
C         52.45278       10.79667        5.37573
N         53.76389       10.84284        5.03679
O         52.07703        9.97906        6.20106
H         51.53953       14.15649        3.38770
H         50.57202       12.34354        1.40175
H         52.40939       11.76129        2.81232
H         51.12264       10.52641        2.98849
H         50.44664       11.58285        5.18795
H         51.77185       12.77625        5.03718
H         54.11434       11.52845        4.35279
H         54.43687       10.18844        5.46352
N         48.10353       13.06798        3.39294
C         46.68386       12.77482        3.62289
C         46.37967       12.52888        5.08986
O         45.24047       12.20708        5.39818
C         45.76787       13.89405        3.04986
C         45.83115       13.92851        1.52113
C         46.08215       15.28584        3.62910
H         48.47881       13.95706        3.74923
H         46.39974       11.82178        3.12341
H         44.71537       13.64666        3.31533
H         45.53153       12.94249        1.10583
H         45.12050       14.68764        1.13889
H         46.85038       14.17595        1.16442
H         45.34992       16.03044        3.25080
H         46.02074       15.27470        4.73766
H         47.09258       15.63080        3.32759
N         47.34734       12.60720        6.04194
C         47.12826       12.26099        7.43535
C         47.39287       13.45096        8.33546
O         46.57934       13.70119        9.21480
C         48.04504       11.07837        7.80896
C         47.72154        9.84994        6.98604
N         48.65540        9.27729        6.19219
O         46.60139        9.36462        7.04159
H         48.30390       12.86709        5.77198
H         46.08336       11.92221        7.62207
H         47.89916       10.81994        8.88049
H         49.10781       11.36962        7.66585
H         49.60503        9.66165        6.13571
H         48.43040        8.44194        5.63174
N         48.52389       14.20598        8.20677
C         48.93050       15.20456        9.19156
C         49.04059       16.59595        8.60089
O         49.42649       16.71089        7.44809
C         50.32214       14.80763        9.72147
C         50.38269       13.34608       10.09552
C         49.57339       12.82529       11.11648
C         51.23826       12.48319        9.38685
C         49.62049       11.46148       11.42259
C         51.28323       11.12308        9.69399
C         50.47632       10.60626       10.71094
O         50.52952        9.28934       10.99202
H         49.17592       14.01258        7.43251
H         48.21616       15.22758       10.04368
H         50.60596       15.44882       10.58309
H         51.06256       14.99191        8.90958
H         48.90191       13.47181       11.66702
H         51.86382       12.85883        8.58579
H         48.98835       11.07008       12.20886
H         51.94257       10.47074        9.13538
H         49.98840        8.88991       11.68738
N         48.90170       17.68895        9.41700
C         49.16999       19.08848        9.06662
C         48.08601       19.74379        8.22399
O         47.57360       20.76743        8.65819
C         50.57845       19.30605        8.47527
C         51.66938       18.84098        9.45398
C         53.04139       19.16783        8.94233
O         53.36262       20.32886        8.74244
O         53.93478       18.18379        8.72790
H         48.67230       17.51037       10.40686
H         49.16714       19.66563       10.02135
H         50.70723       20.39782        8.30037
H         50.69567       18.79710        7.49623
H         51.58569       17.74485        9.61375
H         51.53631       19.34979       10.43375
N         47.67754       19.24233        7.02555
C         46.65703       19.88025        6.20009
C         45.39245       20.09343        7.00825
O         44.95522       21.22986        7.13014
C         46.34797       19.04288        4.93256
C         47.55991       18.71553        4.03335
C         48.27168       19.93643        3.52714
O         48.93598       20.74063        4.37732
O         48.28952       20.18150        2.33377
H         48.09139       18.37397        6.69087
H         47.02449       20.87878        5.87953
H         45.59748       19.59492        4.32340
H         45.89294       18.07439        5.23273
H         47.18451       18.12418        3.17334
H         48.29438       18.06736        4.55103
N         44.78868       19.04722        7.63701
C         43.62988       19.19550        8.49352
H         42.79933       18.57295        8.10410
H         43.89098       18.85322        9.51737
H         43.28285       20.24836        8.56171
H         45.18697       18.10179        7.53590
Ca        49.94352       21.20984        0.24480
O         51.72347       21.20335       -2.07317
H         51.05102       20.47539       -2.08453
H         52.17433       21.11466       -1.19711
O         51.10343       22.80823        2.65334
H         50.80872       22.25946        3.42163
H         51.26456       23.70594        3.03747
O         52.16935       19.89838        1.87997
H         52.57830       19.14456        1.38676
H         51.85959       19.49852        2.73097

Ca 1.0



