%chk=apoCaM-CA-Ng.loop4.water4.frame736.chk
%nprocshared=20
%mem=10GB
%nosave
#b3lyp/svp scf=(tight,noincore,xqc) Test 
#IOP(5/87=12) Density=Current Pop=(MK,readradii) iop(6/33=2) iop(6/42=6)

apoCaM-CA-Ng.loop4.water4.frame736 

   -3  1 
C        118.28028       14.05218       -4.54758
C        119.61612       13.67967       -5.11895
O        119.67124       12.90694       -6.06361
H        117.45899       13.53196       -5.08448
H        118.23964       13.77799       -3.47380
H        118.13140       15.14883       -4.64450
N        120.74728       14.23094       -4.59856
C        122.09745       13.98892       -5.09774
C        122.20205       14.38905       -6.55884
O        122.67220       13.61628       -7.38390
C        122.55173       12.53614       -4.84094
C        122.52437       12.20652       -3.37608
O        123.27158       12.91424       -2.50739
O        121.83392       11.28915       -2.96698
H        120.64741       14.89949       -3.81860
H        122.78734       14.65864       -4.53614
H        123.59576       12.40679       -5.19966
H        121.90487       11.82617       -5.40070
N        121.74742       15.61184       -6.94352
C        121.82455       16.09528       -8.32003
C        123.28407       16.31986       -8.72348
O        124.10824       16.50324       -7.83820
C        120.96798       17.39969       -8.50412
C        121.39634       18.55543       -7.55391
C        119.47471       17.05712       -8.34002
C        120.71061       19.88746       -7.86724
H        121.30270       16.19211       -6.22087
H        121.39847       15.30434       -8.97601
H        121.10114       17.76658       -9.53894
H        122.48867       18.72443       -7.65118
H        121.17784       18.30864       -6.49509
H        118.82461       17.92403       -8.56854
H        119.19914       16.26005       -9.05579
H        119.24810       16.70010       -7.31355
H        119.61062       19.82457       -7.74739
H        121.07696       20.66284       -7.16164
H        120.95207       20.20775       -8.90245
N        123.71079       16.35751      -10.02367
C        122.87767       16.05698      -11.18543
C        122.69606       14.56053      -11.39201
O        121.86857       14.19895      -12.21365
C        123.51184       16.62691      -12.47319
C        123.74980       18.10744      -12.38143
O        122.81627       18.87435      -12.20829
O        125.00027       18.59444      -12.49764
H        124.70238       16.59269      -10.19052
H        121.88886       16.53491      -11.07055
H        122.84464       16.43164      -13.34206
H        124.48258       16.11643      -12.66205
N        123.46926       13.63174      -10.75256
C        123.38714       12.20631      -11.03951
C        123.78524       11.92907      -12.47374
O        124.90105       12.26282      -12.84744
H        124.17338       13.93340      -10.06442
H        122.35941       11.84374      -10.82351
H        124.09168       11.65558      -10.37974
N        122.90501       11.35046      -13.34079
C        123.19062       11.14903      -14.76129
C        122.36054       12.07877      -15.63990
O        122.56664       12.06303      -16.84602
C        123.05376        9.65595      -15.17786
C        121.72533        8.96892      -14.95362
O        121.58400        7.81597      -15.32837
O        120.70478        9.57022      -14.32370
H        121.97297       11.10062      -12.98267
H        124.24415       11.42945      -14.97832
H        123.81728        9.06447      -14.63014
H        123.28824        9.58215      -16.26290
N        121.41491       12.91908      -15.12193
C        120.57907       13.78302      -15.93756
C        119.22350       13.15339      -16.17127
O        118.42779       13.73469      -16.89329
H        121.19136       12.88647      -14.12140
H        121.03876       13.94047      -16.93733
H        120.49271       14.78053      -15.45472
N        118.92523       11.92270      -15.65492
C        117.76053       11.12493      -15.99753
C        116.45787       11.70589      -15.47372
O        115.40829       11.21996      -15.87109
C        117.74937       10.81246      -17.51531
C        119.09667       10.20045      -17.96880
C        119.11397        9.75955      -19.41124
N        120.24794        9.24126      -19.93870
O        118.11541        9.86132      -20.10891
H        119.59486       11.46311      -15.03767
H        117.85969       10.13632      -15.49449
H        117.54784       11.72783      -18.11065
H        116.93458       10.08292      -17.71434
H        119.33554        9.31671      -17.33836
H        119.90439       10.95286      -17.83665
H        121.10188        9.15394      -19.36738
H        120.27628        8.93033      -20.92110
N        116.44291       12.67515      -14.50876
C        115.21192       13.22367      -13.94304
C        115.05925       12.91270      -12.45414
O        114.06049       13.34672      -11.89503
C        115.13324       14.76064      -14.19051
C        116.25700       15.54655      -13.49041
C        115.12458       15.08040      -15.69098
H        117.33563       13.02862      -14.13767
H        114.32414       12.77074      -14.43653
H        114.16580       15.12366      -13.77675
H        116.11156       16.63641      -13.64801
H        116.23922       15.36209      -12.39696
H        117.25686       15.27424      -13.88660
H        114.27996       14.55868      -16.18887
H        114.99573       16.17285      -15.84767
H        116.07367       14.76554      -16.17094
N        115.97538       12.18698      -11.73873
C        115.85638       11.97738      -10.29327
C        115.70470       10.51173       -9.93083
O        115.76650        9.65070      -10.79839
C        117.08037       12.59104       -9.58865
C        117.15550       14.07329       -9.83855
N        116.18894       14.90149       -9.37500
O        118.09834       14.52975      -10.46606
H        116.80343       11.79448      -12.21037
H        114.93960       12.47041       -9.90439
H        117.99926       12.09361       -9.97190
H        117.03833       12.43205       -8.49028
H        115.39131       14.53301       -8.83599
H        116.23978       15.91623       -9.54699
N        115.41717       10.17894       -8.63755
C        115.12201        8.81486       -8.19590
C        114.47217        8.80072       -6.81060
O        114.26000        9.85886       -6.23293
C        116.37887        7.90630       -8.23418
C        117.33921        8.11271       -7.07963
C        118.05811        9.30841       -6.91693
C        117.52141        7.07458       -6.14472
C        118.94521        9.45430       -5.84210
C        118.40053        7.22655       -5.07284
C        119.11808        8.41204       -4.91935
O        119.97185        8.53384       -3.88538
H        115.32055       10.95855       -7.97039
H        114.37142        8.39274       -8.90034
H        116.91413        7.99838       -9.20139
H        116.01484        6.85767       -8.19535
H        117.94230       10.12090       -7.62124
H        116.97983        6.14179       -6.23986
H        119.50226       10.37266       -5.72615
H        118.52724        6.41863       -4.36252
H        120.49532        9.33242       -3.74458
N        114.14404        7.62364       -6.20453
C        113.55391        7.55859       -4.87432
C        114.55274        6.91509       -3.93011
O        114.74794        5.71127       -4.03020
C        112.24625        6.74362       -4.91887
C        111.16992        7.41767       -5.77997
C        109.97914        6.51701       -5.94170
O        110.09862        5.44041       -6.50622
O        108.77152        6.89735       -5.48487
H        114.34889        6.73430       -6.68363
H        113.30762        8.56752       -4.51209
H        111.84426        6.60793       -3.89006
H        112.47894        5.73824       -5.33724
H        111.56375        7.64635       -6.79282
H        110.86590        8.37114       -5.29471
N        115.29724        7.61887       -3.02452
C        115.31944        9.07484       -2.88329
C        114.03099        9.60899       -2.28380
O        113.65309        9.18496       -1.19991
C        116.51451        9.48470       -1.99823
C        116.73384       11.00457       -1.96110
C        117.93214       11.33289       -1.12158
O        117.94469       11.05186        0.06617
O        119.00383       11.92986       -1.67460
H        115.97288        7.07427       -2.46383
H        115.51061        9.51873       -3.88492
H        117.43251        9.02761       -2.42765
H        116.37495        9.08804       -0.96769
H        115.84719       11.52436       -1.53955
H        116.90020       11.37254       -2.99771
N        113.32351       10.57911       -2.92675
C        112.11023       11.14361       -2.37848
H        111.34273       10.35083       -2.25595
H        112.32205       11.61438       -1.39465
H        111.71294       11.92270       -3.06390
H        113.66277       10.94356       -3.82939
Ca       120.81013       12.36192       -0.39179
O        120.34808       10.48035        2.08586
H        120.88882       10.26379        2.88623
H        119.57291       10.98560        2.43836
O        123.28703       12.57689        1.36720
H        123.46852       11.72313        1.83439
H        122.52436       12.97143        1.86052
O        123.11929        9.68466       -0.21958
H        123.66143        9.14615        0.41025
H        123.78324       10.10618       -0.82123
O        120.09693        8.72943       -0.71792
H        119.40964        8.27393       -1.26475
H        120.00402        8.32150        0.17903

Ca 1.0



