%chk=apoCaM-CA-Ng.loop1.water3.frame343.chk
%nprocshared=20
%mem=10GB
%nosave
#b3lyp/svp scf=(tight,noincore,xqc) Test 
#IOP(5/87=12) Density=Current Pop=(MK,readradii) iop(6/33=2) iop(6/42=6)

apoCaM-CA-Ng.loop1.water3.frame343 

   0  1 
C         87.99172      101.82155       72.22395
C         87.15963      103.01065       71.85381
O         86.79368      103.15632       70.69634
H         88.95108      102.16231       72.66766
H         87.44356      101.20983       72.97124
H         88.20790      101.19573       71.33304
N         86.83630      103.92000       72.81009
C         86.02420      105.10089       72.56629
C         86.85589      106.36550       72.74556
O         86.27494      107.43357       72.73480
C         84.82537      105.11120       73.54876
C         83.93437      103.90630       73.41243
O         84.40689      102.67564       73.68582
O         82.76437      104.04203       73.09004
H         87.19370      103.77614       73.76824
H         85.60840      105.11111       71.53631
H         84.20532      106.00825       73.35723
H         85.18835      105.17168       74.59715
N         88.21185      106.35140       72.90866
C         88.96248      107.55262       73.26489
C         89.95194      107.98494       72.20182
O         90.77637      107.16436       71.82371
C         89.75551      107.29602       74.55349
C         88.85560      107.14110       75.77968
C         89.72145      106.86619       77.01170
C         88.88720      106.85307       78.29336
N         89.73250      106.56280       79.45065
H         88.73257      105.46545       72.83405
H         88.27302      108.36980       73.46354
H         90.42229      108.16764       74.74436
H         90.39423      106.39364       74.41986
H         88.13207      106.30871       75.63827
H         88.29005      108.08932       75.92040
H         90.49600      107.65926       77.10713
H         90.23062      105.88533       76.88192
H         88.08692      106.08458       78.21702
H         88.41015      107.85020       78.42661
H         89.14958      106.59110       80.31748
H         90.15351      105.61005       79.35395
H         90.49391      107.27606       79.53024
N         90.04634      109.27184       71.72834
C         89.16349      110.41745       71.99698
C         88.98303      110.71177       73.48827
O         87.87624      110.59718       73.98734
C         87.83738      110.26239       71.22198
C         88.12119      109.89204       69.76354
O         89.05715      110.74321       69.16306
O         86.95874      109.91723       68.98640
H         90.83203      109.46808       71.08797
H         89.63012      111.32122       71.54674
H         87.26793      111.21601       71.27561
H         87.20739      109.46222       71.65031
N         90.00727      111.10235       74.29013
C         91.29692      111.47654       73.75368
C         92.29303      111.89518       74.81655
O         92.06449      111.65865       75.99428
H         89.81432      111.22194       75.29688
H         91.09920      112.35110       73.09634
H         91.74558      110.65273       73.16219
N         93.43067      112.57233       74.49103
C         93.71318      113.05081       73.14114
C         93.15243      114.45285       72.96279
O         92.70563      115.06296       73.92544
C         95.21251      112.92277       72.80547
C         96.10514      113.63907       73.78166
O         96.02005      114.84704       73.93197
O         97.00817      112.94116       74.49762
H         94.02761      112.90100       75.26587
H         93.18908      112.42117       72.39322
H         95.40679      113.30788       71.78147
H         95.47790      111.84294       72.81466
N         93.08110      114.99442       71.71772
C         92.49816      116.29381       71.43363
C         91.03059      116.37087       71.80588
O         90.65095      117.29023       72.51735
H         93.44165      114.45063       70.91886
H         92.57492      116.47770       70.34007
H         93.07470      117.09013       71.95335
N         90.14078      115.45311       71.32834
C         88.69500      115.54617       71.54857
C         88.35856      115.53718       73.03426
O         88.66553      114.56598       73.71245
C         87.93287      114.38994       70.84813
C         88.14098      114.36773       69.32852
O         86.55770      114.53156       71.10209
H         90.51600      114.67916       70.76139
H         88.33980      116.50075       71.09965
H         88.30107      113.42968       71.27799
H         86.15304      113.62761       71.03454
H         87.56103      113.52647       68.89384
H         87.78458      115.31644       68.87467
H         89.20305      114.21365       69.05428
N         87.71293      116.60201       73.60009
C         87.36451      116.66130       75.02229
C         86.33694      115.60064       75.42309
O         86.17855      115.36224       76.61262
C         86.86709      118.09716       75.40714
C         86.71982      118.33897       76.93271
C         85.52361      118.43870       74.72707
C         88.02022      118.14442       77.71270
H         87.51014      117.41466       73.00025
H         88.31313      116.45790       75.55998
H         87.62807      118.82101       75.03918
H         85.93140      117.69053       77.36798
H         86.39920      119.39266       77.08878
H         84.71902      117.76976       75.09424
H         85.22875      119.48440       74.95786
H         85.57895      118.34493       73.62434
H         88.35945      117.08990       77.67833
H         88.81494      118.80489       77.30586
H         87.85161      118.40536       78.77845
N         85.57834      114.95266       74.49336
C         84.57177      113.94644       74.82017
C         84.94751      112.61359       74.19747
O         85.95713      112.53206       73.51038
C         83.15787      114.42251       74.37673
C         83.04572      114.72876       72.86729
O         82.75366      115.51892       75.16493
H         85.70810      115.18219       73.49925
H         84.52922      113.77026       75.91772
H         82.42592      113.61461       74.58147
H         82.89876      116.36147       74.66402
H         81.99793      115.00272       72.62104
H         83.69253      115.58398       72.57941
H         83.32991      113.84285       72.26268
N         84.16610      111.51649       74.40432
C         84.44812      110.19955       73.84312
C         83.42904      109.88751       72.75540
O         82.59558      110.74123       72.47409
C         84.52564      109.13398       74.98953
C         83.17882      108.85242       75.65696
O         85.43308      109.50566       76.00255
H         83.30936      111.62063       74.96715
H         85.43341      110.19804       73.33286
H         84.86630      108.17215       74.56401
H         86.13089      110.09589       75.62444
H         83.31394      108.05621       76.42162
H         82.78512      109.75378       76.16741
H         82.43976      108.48959       74.91408
N         83.42703      108.69070       72.09635
C         82.46079      108.36199       71.05600
C         83.10193      107.80384       69.76921
O         82.38204      107.64079       68.79549
C         81.44459      107.36719       71.65732
C         80.05566      107.50165       71.01575
C         79.01430      106.56186       71.63824
C         79.23204      105.09982       71.22677
N         78.16823      104.24769       71.75576
H         84.06592      107.96221       72.40816
H         81.91942      109.29407       70.78522
H         81.29011      107.62246       72.73035
H         81.86239      106.33824       71.62090
H         80.08824      107.34888       69.91821
H         79.71370      108.54375       71.20865
H         78.01513      106.87528       71.26646
H         79.01421      106.66475       72.74714
H         80.21356      104.73100       71.59284
H         79.22433      105.03720       70.11562
H         78.31658      103.26889       71.41990
H         78.18614      104.25763       72.80122
H         77.23667      104.58123       71.41543
N         84.42789      107.45601       69.69290
C         85.06773      106.90238       68.49354
C         84.37799      105.63704       68.01927
O         84.26688      104.68968       68.78568
C         86.55951      106.56947       68.77887
C         87.32329      105.96874       67.58098
C         87.36646      106.89395       66.39906
O         86.89272      106.54580       65.32915
O         87.94627      108.10356       66.50791
H         85.02293      107.57702       70.51926
H         85.03314      107.67097       67.69050
H         86.62029      105.83637       69.60833
H         87.08809      107.47779       69.11434
H         86.85913      105.00207       67.28670
H         88.36726      105.75248       67.89399
N         83.95342      105.54218       66.72673
C         83.37960      104.34165       66.15492
H         82.36925      104.56681       65.75693
H         84.02464      103.99645       65.31803
H         83.29994      103.51611       66.89229
H         84.07735      106.34762       66.09477
Ca        87.86602      111.11947       67.29136
O         88.13750      113.54423       65.88557
H         87.25616      113.56964       66.33702
H         88.31694      114.48445       65.63850
O         88.93866      110.07956       64.18190
H         88.22871      109.87235       63.52342
H         89.49578      110.76771       63.73851
O         85.51585      110.79155       65.60504
H         85.40008      111.49631       66.29138
H         85.10611      109.98524       66.00770

Ca 1.0



