%chk=apoCaM-CA-Ng.loop2.water4.frame1329.chk
%nprocshared=20
%mem=10GB
%nosave
#b3lyp/svp scf=(tight,noincore,xqc) Test 
#IOP(5/87=12) Density=Current Pop=(MK,readradii) iop(6/33=2) iop(6/42=6)

apoCaM-CA-Ng.loop2.water4.frame1329 

   -2  1 
C         62.87175       53.51369      109.31912
C         61.99669       54.74554      109.28207
O         62.37295       55.66303      108.56755
H         63.88951       53.81675      109.64574
H         62.55896       52.71149      110.00524
H         62.94406       53.08229      108.29964
N         60.85180       54.91884      110.01157
C         60.23100       53.93729      110.89920
C         60.44326       54.27483      112.36458
O         59.99958       53.49578      113.19757
C         58.72608       53.77506      110.57182
C         57.86598       54.99532      110.81205
O         56.66620       54.92900      110.59945
O         58.38517       56.15120      111.26740
H         60.40281       55.84436      109.94244
H         60.67337       52.93937      110.75353
H         58.31737       52.95320      111.20052
H         58.62169       53.47091      109.50830
N         61.12787       55.38824      112.76391
C         61.36526       55.70724      114.16302
C         60.74743       57.05225      114.48503
O         61.43815       57.91882      115.00347
C         62.88087       55.70074      114.41377
H         61.50987       56.04034      112.06342
H         60.89929       54.95034      114.82978
H         63.10483       55.91673      115.47957
H         63.30779       54.70946      114.15378
H         63.37577       56.47065      113.77993
N         59.43695       57.30099      114.18707
C         58.81329       58.60763      114.41207
C         57.31297       58.62256      114.10617
O         56.75208       57.64373      113.63400
C         59.55160       59.71591      113.60114
C         59.63620       59.42643      112.12761
O         58.62780       59.36749      111.44866
O         60.83791       59.25728      111.54303
H         58.88396       56.53545      113.77510
H         58.89977       58.84464      115.49492
H         60.58573       59.82924      113.97584
H         59.07570       60.70562      113.75237
N         56.60215       59.74839      114.39850
C         55.17535       59.93154      114.18679
C         54.76350       59.86233      112.70905
O         55.77292       60.31584      111.86244
H         57.10160       60.54205      114.82592
H         54.91618       60.94420      114.56692
H         54.58786       59.19075      114.77111
N         53.49934       60.59002      112.49886
C         53.16176       60.83060      111.07164
C         53.74274       62.16754      110.62598
O         54.32317       62.86356      111.45030
C         51.62954       60.83026      110.87339
C         51.04215       59.47879      111.20316
N         50.15726       59.33421      112.21665
O         51.38151       58.50092      110.55421
H         52.75980       60.05132      113.00262
H         53.59590       60.02904      110.43283
H         51.37030       61.05866      109.81811
H         51.18245       61.62093      111.51572
H         49.86440       60.14268      112.78400
H         49.77323       58.40506      112.44421
N         53.64312       62.59702      109.32852
C         54.24398       63.85484      108.89431
C         55.75154       63.79980      109.05253
O         56.28026       62.71246      109.23313
H         53.14437       62.02215      108.63313
H         53.81450       64.66720      109.51627
H         54.00208       64.06692      107.82936
N         56.54662       64.90275      109.07075
C         56.10355       66.28723      108.94148
C         55.69764       66.61246      107.51594
O         54.63386       67.18165      107.31624
C         57.23217       67.25534      109.39532
C         57.52267       67.10995      110.89621
O         58.40942       67.01817      108.66793
H         57.54839       64.73293      109.25348
H         55.24936       66.48924      109.62591
H         56.87920       68.29874      109.21589
H         58.98808       67.81617      108.78615
H         58.31009       67.83239      111.19848
H         56.60760       67.32644      111.48723
H         57.87540       66.08689      111.14276
N         56.52112       66.29729      106.47758
C         56.30093       66.70406      105.09386
C         55.92495       65.47035      104.27980
O         56.60528       64.46398      104.42779
C         57.60931       67.35229      104.54226
C         58.18584       68.47365      105.44208
C         57.42019       67.86293      103.11091
C         57.25723       69.66299      105.68839
H         57.36802       65.74271      106.67668
H         55.49108       67.45658      105.04102
H         58.39154       66.56044      104.50491
H         59.13035       68.84660      104.98895
H         58.45508       68.04132      106.42155
H         57.10196       67.02001      102.47380
H         56.65548       68.66464      103.05832
H         58.37564       68.25973      102.70891
H         57.00514       70.17928      104.74085
H         56.32669       69.33971      106.19738
H         57.77467       70.39036      106.34918
N         54.88377       65.42133      103.39249
C         54.08784       66.56746      102.94219
C         53.74090       66.44907      101.45365
O         54.08660       65.45706      100.82922
C         52.85958       66.78031      103.85844
C         51.87819       65.64039      103.91313
O         52.04518       64.62030      103.26428
O         50.79164       65.75243      104.70085
H         54.73357       64.51678      102.91871
H         54.69761       67.48629      102.99691
H         52.31248       67.69126      103.53687
H         53.21695       66.96333      104.89267
N         53.05745       67.44669      100.81871
C         52.69993       67.41576       99.39641
C         53.10975       68.72170       98.70087
O         53.05953       69.74700       99.36608
C         51.20045       67.09735       99.24985
C         50.32033       68.00209      100.07022
C         49.93949       69.26717       99.59955
C         49.88545       67.57630      101.33795
C         49.13274       70.09318      100.38954
C         49.09355       68.40836      102.12867
C         48.71471       69.66598      101.65443
H         52.74216       68.25289      101.37696
H         53.19542       66.56662       98.92163
H         51.07492       66.05992       99.63476
H         50.87131       67.06472       98.18799
H         50.25975       69.60791       98.62276
H         50.17688       66.60622      101.72160
H         48.83393       71.06607      100.02321
H         48.77739       68.07647      103.10922
H         48.09796       70.30843      102.26832
N         53.50446       68.81334       97.38008
C         53.60386       67.73960       96.39466
C         54.44656       66.58564       96.86982
O         53.94653       65.46933       96.89611
C         54.25123       68.41035       95.17181
C         53.70457       69.81204       95.26937
C         53.82892       70.08836       96.76569
H         52.57181       67.40026       96.14893
H         55.35104       68.50663       95.31161
H         54.07106       67.88732       94.20826
H         54.19817       70.56430       94.61739
H         52.62252       69.76573       95.00859
H         54.86454       70.36845       97.06054
H         53.11613       70.89843       97.03288
N         55.70715       66.79588       97.34877
C         56.44312       65.74805       98.03642
C         56.69135       64.57420       97.09939
O         57.39752       64.77683       96.12175
C         57.78818       66.23055       98.63566
C         57.65916       67.35045       99.68536
C         57.53495       68.72913       99.10514
O         56.56325       69.42255       99.35951
O         58.52240       69.22264       98.33284
H         56.10149       67.74197       97.29539
H         55.83300       65.46530       98.90350
H         58.52768       66.51722       97.85689
H         58.19777       65.34741       99.17553
H         58.58542       67.36224      100.29855
H         56.79567       67.12359      100.34199
N         56.16909       63.31992       97.27218
C         55.28511       62.87019       98.33517
H         54.33748       62.50464       97.88717
H         55.76512       62.03268       98.88155
H         55.01095       63.63114       99.07778
H         56.41080       62.60526       96.56885
Ca        56.16967       58.34001      110.78335
O         57.23803       56.98355      108.27128
H         57.59611       57.56168      107.55218
H         57.09161       56.10547      107.83812
O         56.10427       59.99155      108.55815
H         57.06541       60.20567      108.45353
H         55.70602       60.15572      107.66824
O         54.08168       57.53786      108.75480
H         53.67644       58.39564      108.47163
H         53.41045       57.13260      109.35873
O         54.02070       56.57542      112.14682
H         53.07096       56.85411      112.13172
H         54.18235       56.29412      113.08208

Ca 1.0



