%chk=apoCaM-CA-Ng.loop3.water4.frame20.chk
%nprocshared=20
%mem=10GB
%nosave
#b3lyp/svp scf=(tight,noincore,xqc) Test 
#IOP(5/87=12) Density=Current Pop=(MK,readradii) iop(6/33=2) iop(6/42=6)

apoCaM-CA-Ng.loop3.water4.frame20 

   0  1 
C         92.95821       52.25840       62.83907
C         94.15033       53.16219       62.92371
O         95.24853       52.74026       62.59480
H         92.19926       52.70523       62.16280
H         93.24547       51.25895       62.44957
H         92.51703       52.13585       63.85086
N         93.99691       54.43415       63.38351
C         95.07817       55.39997       63.53294
C         96.13308       54.88822       64.49832
O         97.31419       54.89292       64.17733
C         95.67152       55.81120       62.16727
C         94.63577       56.42157       61.26721
O         93.99449       57.54591       61.63985
O         94.38395       55.91280       60.18669
H         93.05301       54.73854       63.66909
H         94.65072       56.31731       63.99761
H         96.11934       54.92679       61.67437
H         96.47452       56.56500       62.32079
N         95.75605       54.45707       65.73352
C         96.69932       54.10694       66.79018
C         96.58924       52.64365       67.20070
O         97.24363       52.25412       68.15878
C         96.41764       55.01581       68.00713
C         96.34371       56.50009       67.61073
C         96.14956       57.40308       68.82955
C         95.92224       58.85511       68.38733
N         95.80523       59.74289       69.54195
H         94.74911       54.42858       65.96088
H         97.74621       54.28796       66.46224
H         97.21598       54.86017       68.76551
H         95.44034       54.73645       68.46227
H         95.47722       56.64376       66.92763
H         97.27154       56.80006       67.07705
H         97.05332       57.33486       69.47331
H         95.26488       57.06731       69.41431
H         94.98670       58.90986       67.78487
H         96.76816       59.19497       67.74977
H         96.70166       59.74209       70.08068
H         95.61247       60.71430       69.20663
H         95.01983       59.43389       70.15952
N         95.77139       51.77683       66.53784
C         95.52680       50.40278       66.97145
C         96.79124       49.54283       66.95637
O         97.82306       49.98038       66.46594
C         94.41288       49.82647       66.07032
C         93.88370       48.48949       66.46684
O         93.38947       48.30980       67.56845
O         93.84833       47.51671       65.54749
H         95.24846       52.12125       65.71928
H         95.14843       50.45074       68.01646
H         94.77693       49.78213       65.01818
H         93.54642       50.52217       66.10075
N         96.77928       48.30398       67.52932
C         97.92865       47.41724       67.58023
C         98.33387       46.96056       66.20378
O         99.48346       47.14186       65.82744
H         95.92066       47.97213       67.98897
H         97.65587       46.51126       68.16456
H         98.77295       47.91693       68.10404
N         97.42588       46.34231       65.39553
C         97.75126       45.83159       64.06463
C         98.16210       46.92562       63.07244
O         98.55721       46.57593       61.96927
C         96.54989       45.05412       63.48141
C         96.12877       43.87902       64.33113
N         96.97158       42.84510       64.56029
O         95.00226       43.85153       64.80111
H         96.47280       46.20104       65.76427
H         98.60882       45.13008       64.16969
H         96.80830       44.66045       62.48169
H         95.69597       45.75692       63.36565
H         97.92044       42.83568       64.16023
H         96.66832       42.04273       65.13270
N         98.11723       48.25547       63.37881
C         98.56283       49.30286       62.47352
C         97.66759       49.42344       61.26560
O         96.48547       49.65232       61.45651
H         97.77970       48.56018       64.29877
H         99.62296       49.12564       62.19048
H         98.51639       50.27674       63.00769
N         98.18494       49.34553       60.00033
C         97.44466       49.47755       58.73985
C         96.60418       48.25265       58.41888
O         96.88283       47.65268       57.39295
C         96.64497       50.79225       58.62930
C         97.54399       52.00792       58.66732
C         97.40804       52.96578       59.68326
C         98.51711       52.20606       57.66919
C         98.23136       54.09722       59.70445
C         99.33729       53.33717       57.69204
C         99.19568       54.28795       58.71100
O         99.97544       55.38740       58.74401
H         99.20462       49.21486       59.91346
H         98.20647       49.50542       57.92777
H         95.87079       50.83791       59.42164
H         96.10779       50.80968       57.65569
H         96.66497       52.83670       60.45576
H         98.63967       51.49092       56.86603
H         98.12180       54.83141       60.49061
H        100.07920       53.47471       56.91537
H        100.64997       55.56048       58.07186
N         95.56178       47.83656       59.19961
C         94.78219       46.61172       59.01068
C         95.58711       45.37644       59.43480
O         95.13858       44.70302       60.35298
C         94.09450       46.53047       57.61461
C         93.31310       47.83395       57.27254
C         93.15340       45.31249       57.53459
C         92.24839       48.25082       58.29837
H         95.27636       48.41682       59.99220
H         93.94503       46.65374       59.74432
H         94.86101       46.39171       56.82368
H         92.81970       47.70822       56.28384
H         94.02925       48.67714       57.17364
H         92.67564       45.26117       56.53254
H         93.71259       44.36986       57.68615
H         92.35804       45.35977       58.30632
H         91.48027       47.46346       58.43446
H         92.71019       48.48717       59.27930
H         91.73765       49.17147       57.94639
N         96.79396       45.03749       58.88679
C         97.60095       43.93484       59.39759
C         97.08702       42.59122       58.93689
O         97.57561       41.59448       59.45218
C         99.08236       44.09039       58.99750
O         99.65298       45.22890       59.58805
H         97.19886       45.59780       58.13911
H         97.57476       43.96020       60.50584
H         99.20679       44.11883       57.89218
H         99.65435       43.21325       59.37058
H         99.20496       46.02493       59.20368
N         96.10984       42.46673       57.98507
C         95.58347       41.18290       57.54149
C         94.90661       40.42309       58.67735
O         94.60740       39.25273       58.49364
C         96.69885       40.35350       56.87733
H         95.72032       43.30761       57.53907
H         94.81711       41.35286       56.75289
H         97.14787       40.93335       56.04239
H         97.50370       40.07596       57.58620
H         96.28141       39.41497       56.45572
N         94.60806       41.03023       59.86937
C         94.04277       40.31915       61.00767
C         92.67046       40.84148       61.36072
O         92.26719       41.88022       60.85659
C         94.97652       40.50427       62.20737
H         94.78419       42.03609       59.99346
H         93.94444       39.23782       60.77647
H         94.59336       39.96928       63.10048
H         95.98964       40.12226       61.96343
H         95.06354       41.58696       62.45527
N         91.88164       40.12820       62.22335
C         90.56419       40.56334       62.67529
C         89.68957       40.89163       61.47840
O         89.19519       42.00661       61.36385
C         90.73291       41.74574       63.64879
C         91.48616       41.32067       64.93052
C         91.93456       42.50600       65.73348
O         91.81852       43.73311       65.20297
O         92.53250       42.34948       66.78584
H         92.22657       39.22184       62.57250
H         90.07692       39.73502       63.23702
H         89.74441       42.15678       63.95302
H         91.28969       42.54515       63.11486
H         92.40996       40.76027       64.67302
H         90.82820       40.66140       65.53702
N         89.49321       39.95567       60.51236
C         88.73485       40.23717       59.31428
H         87.69038       40.50581       59.57680
H         89.20721       41.07813       58.76128
H         88.72555       39.34406       58.65476
H         89.92068       39.02258       60.61641
Ca        92.87645       45.54893       65.94087
O         90.34576       47.15118       65.71654
H         90.24669       47.04332       66.69594
H         90.65058       48.08586       65.59902
O         92.37699       45.83216       62.96090
H         92.42755       44.97059       62.47587
H         93.30231       46.18316       62.94060
O         95.21691       44.98718       67.94426
H         95.79933       44.28005       67.56853
H         94.89410       44.61379       68.80229
O         91.86620       44.86896       68.76798
H         90.91375       44.78112       68.51180
H         91.93844       44.38745       69.62999

Ca 1.0



