%chk=apoCaM-CA-Ng.loop3.water5.frame385.chk
%nprocshared=20
%mem=10GB
%nosave
#b3lyp/svp scf=(tight,noincore,xqc) Test 
#IOP(5/87=12) Density=Current Pop=(MK,readradii) iop(6/33=2) iop(6/42=6)

apoCaM-CA-Ng.loop3.water5.frame385 

   0  1 
C         29.61177      123.43110        7.65595
C         30.10401      123.94728        6.33459
O         31.29260      124.20286        6.21231
H         28.51765      123.24136        7.63695
H         30.12998      122.48053        7.90196
H         29.82593      124.17710        8.44961
N         29.23826      124.12705        5.29473
C         29.61974      124.62788        3.97815
C         30.13358      126.05824        4.09004
O         31.27039      126.34382        3.73824
C         30.59280      123.64524        3.28162
C         30.85727      123.97868        1.83398
O         30.28273      125.04504        1.24194
O         31.59308      123.25853        1.17905
H         28.24244      123.89859        5.43854
H         28.70002      124.65767        3.35053
H         30.13899      122.63008        3.30617
H         31.56098      123.60588        3.82184
N         29.29684      127.02164        4.56953
C         29.64627      128.44098        4.67354
C         30.72777      128.74915        5.70427
O         31.09286      129.91020        5.82992
C         28.37806      129.26373        5.00532
C         27.80807      128.99131        6.41446
C         26.46920      129.71157        6.59913
C         25.88658      129.46244        7.99606
N         24.56672      130.07957        8.12330
H         28.33786      126.72632        4.80700
H         30.00264      128.77316        3.67363
H         27.61072      129.02171        4.23779
H         28.60513      130.34968        4.92263
H         28.53188      129.33681        7.18537
H         27.63657      127.90507        6.56377
H         25.75599      129.32716        5.83728
H         26.60255      130.80487        6.44641
H         26.57161      129.88472        8.76498
H         25.79151      128.36795        8.17389
H         24.19790      129.90788        9.08628
H         24.63120      131.11061        7.96072
H         23.90763      129.65477        7.43043
N         31.24595      127.78458        6.51307
C         32.18253      128.05943        7.59944
C         33.48423      128.68720        7.09291
O         33.70389      128.75191        5.89076
C         32.36924      126.73971        8.37484
C         33.19176      126.78639        9.61464
O         32.69867      126.47592       10.68771
O         34.51980      126.88686        9.50031
H         30.90806      126.82038        6.40448
H         31.69525      128.79369        8.27813
H         32.81659      125.97182        7.70427
H         31.35694      126.37763        8.66430
N         34.36084      129.24716        7.97508
C         35.55009      129.98762        7.58807
C         36.53265      129.17122        6.78975
O         36.87065      129.58367        5.68895
H         34.14473      129.21697        8.98146
H         36.06409      130.34708        8.50592
H         35.24571      130.88141        7.00024
N         37.04429      128.00849        7.28208
C         38.04363      127.22038        6.56489
C         37.48111      125.92001        6.01515
O         38.23528      125.21334        5.35980
C         39.30259      127.01305        7.44353
C         39.11663      126.20858        8.71134
N         40.17066      126.02068        9.53924
O         38.03333      125.72319        8.99841
H         36.70588      127.67354        8.19527
H         38.38980      127.77733        5.66700
H         39.69109      128.01574        7.72566
H         40.08503      126.50641        6.83711
H         41.09383      126.42140        9.31659
H         40.06683      125.47650       10.40666
N         36.17462      125.55184        6.18705
C         35.61095      124.34858        5.58926
C         35.17333      123.32456        6.61231
O         34.76179      122.25059        6.19735
H         35.53806      126.14703        6.73672
H         36.35641      123.84527        4.93779
H         34.74913      124.63105        4.94670
N         35.24326      123.56238        7.95438
C         34.93749      122.56457        8.96818
C         36.20001      122.36708        9.84704
O         36.68776      123.44317       10.61907
C         33.63587      122.95149        9.70188
C         33.34102      122.11678       10.92204
C         33.17190      120.72463       10.83746
C         33.23013      122.74634       12.17322
C         32.90900      119.97746       11.99156
C         32.96573      121.99990       13.32126
C         32.80773      120.61082       13.23560
O         32.55910      119.87828       14.33946
H         35.54714      124.48495        8.28811
H         34.74336      121.57988        8.48891
H         32.78931      122.87115        8.98482
H         33.67454      124.01007        9.99285
H         33.25121      120.21736        9.88441
H         33.34999      123.81900       12.26296
H         32.78910      118.90390       11.92013
H         32.88603      122.50441       14.27587
H         32.48445      120.28203       15.21627
N         36.23522      121.09985       10.59419
C         37.46039      120.96818       11.42055
C         38.68420      121.49950       10.67966
O         39.33685      122.38374       11.21492
C         37.64899      119.52766       11.96771
C         36.33934      119.06264       12.66112
C         38.83834      119.50905       12.95303
C         36.40290      117.66064       13.26436
H         36.21257      120.32744        9.88792
H         37.31330      121.61169       12.31906
H         37.87053      118.83723       11.12404
H         35.52785      119.04624       11.90466
H         36.05354      119.77912       13.46269
H         39.03571      118.48709       13.33106
H         39.77162      119.84696       12.45670
H         38.63707      120.17980       13.81729
H         37.12418      117.61884       14.10528
H         35.40377      117.39516       13.67095
H         36.68352      116.91702       12.48975
N         38.94290      121.14483        9.38673
C         39.92358      121.88023        8.59622
C         41.35011      121.58484        9.00890
O         42.21701      122.36593        8.64351
C         39.73228      121.63562        7.08991
O         38.42029      121.94499        6.69840
H         38.33143      120.45685        8.92217
H         39.73256      122.96613        8.76426
H         39.92625      120.56820        6.85457
H         40.44993      122.24570        6.49481
H         38.31328      122.92672        6.80035
N         41.67767      120.48703        9.76093
C         43.03457      120.18476       10.21395
C         43.54512      121.20914       11.22631
O         44.72326      121.18401       11.55159
C         43.98618      120.01587        9.01585
H         40.93866      119.81957       10.02595
H         43.02432      119.20319       10.73724
H         43.58359      119.24483        8.32428
H         44.13423      120.95685        8.45094
H         44.98331      119.67596        9.36615
N         42.69118      122.09517       11.81716
C         43.07713      123.11084       12.78283
C         42.41116      122.82770       14.11356
O         41.20858      122.60782       14.14545
C         42.63618      124.48058       12.26607
H         41.69214      122.04916       11.59387
H         44.18022      123.14610       12.91742
H         43.12622      124.69375       11.29267
H         41.53523      124.51023       12.12516
H         42.92499      125.27188       12.99070
N         43.14611      122.84548       15.26307
C         42.61608      122.57705       16.59633
C         42.19265      121.12400       16.69599
O         41.04898      120.83221       17.02215
C         41.47891      123.55615       16.99086
C         41.89307      125.02869       16.87951
C         40.75537      125.92481       17.28164
O         40.25153      125.86087       18.52933
O         40.28193      126.71506       16.48048
H         44.15016      123.07246       15.20012
H         43.44385      122.71931       17.32752
H         41.18157      123.34168       18.04181
H         40.58565      123.39209       16.35255
H         42.18085      125.25379       15.82918
H         42.76442      125.23183       17.53754
N         43.09596      120.14437       16.42142
C         42.75948      118.74063       16.50119
H         41.92645      118.50983       15.80367
H         43.64039      118.12498       16.22072
H         42.45966      118.48208       17.53892
H         44.05499      120.40276       16.14229
Ca        35.51555      125.34257       10.71129
O         36.47066      128.63755       10.98430
H         35.96001      129.28654       11.53073
H         37.33316      129.08831       10.80248
O         38.73753      125.26157       12.77498
H         38.38440      124.75197       12.00497
H         39.25110      124.59683       13.29795
O         37.07017      127.49487       13.85281
H         37.42685      126.88382       14.54552
H         37.80744      128.13275       13.67980
O         34.12573      126.72383       13.36810
H         33.91797      127.59093       13.79851
H         33.55962      126.06689       13.84581
O         35.95486      123.95014       13.64795
H         35.21715      124.06061       14.29872
H         36.73943      123.70927       14.20130

Ca 1.0



