%chk=apoCaM-CA-Ng.loop1.water1.frame852.chk
%nprocshared=20
%mem=10GB
%nosave
#b3lyp/svp scf=(tight,noincore,xqc) Test 
#IOP(5/87=12) Density=Current Pop=(MK,readradii) iop(6/33=2) iop(6/42=6)

apoCaM-CA-Ng.loop1.water1.frame852 

   0  1 
C         61.33519       42.80939       19.53586
C         59.92023       42.65591       19.07174
O         59.35852       41.58069       19.22824
H         61.98360       43.07324       18.67490
H         61.38881       43.61266       20.29973
H         61.70310       41.86220       19.98599
N         59.27623       43.70548       18.48735
C         57.89681       43.62965       18.01923
C         57.81510       43.78963       16.50483
O         58.80152       44.11601       15.85997
C         56.99927       44.58376       18.83597
C         57.52164       45.98922       18.91973
O         57.64172       46.66569       17.91671
O         57.86588       46.50749       20.11537
H         59.78760       44.59433       18.37016
H         57.49726       42.60854       18.20301
H         56.95957       44.19082       19.87577
H         55.96254       44.58354       18.43718
N         56.67836       43.38441       15.87026
C         56.58901       43.13631       14.42862
C         56.54030       44.39625       13.57517
O         56.67959       44.26299       12.36652
C         55.38437       42.18666       14.20039
C         55.09316       41.67089       12.77922
C         54.02938       40.55010       12.89044
C         53.55346       39.95151       11.55878
N         52.68923       40.87372       10.82702
H         55.90569       43.05361       16.46983
H         57.50312       42.57192       14.13186
H         54.46050       42.67498       14.58069
H         55.59260       41.29575       14.83595
H         56.01338       41.24383       12.32317
H         54.73652       42.51338       12.15125
H         53.13833       40.91283       13.44827
H         54.48634       39.72270       13.47653
H         52.95712       39.03916       11.78415
H         54.42400       39.64656       10.93739
H         51.83701       41.09521       11.39147
H         53.19834       41.75380       10.63062
H         52.39366       40.43386        9.92547
N         56.35062       45.64477       14.09884
C         56.33248       46.83777       13.25439
C         57.74051       47.13093       12.64380
O         58.85959       46.68603       13.36276
C         55.43699       47.97928       13.84419
C         55.59662       48.64247       15.20591
O         54.70731       49.39764       15.56570
O         56.62947       48.45291       16.04610
H         56.18130       45.75185       15.10917
H         55.72925       46.59247       12.35295
H         54.42343       47.51939       13.89854
H         55.37260       48.79255       13.09185
N         57.96089       48.44375       12.01211
C         57.24165       48.63664       10.73487
C         56.99402       47.34903        9.97801
O         57.93463       46.61020        9.72180
H         58.98273       48.49976       11.78875
H         57.83151       49.32514       10.08924
H         56.27928       49.14963       10.93923
N         55.72629       47.02102        9.60715
C         55.35995       45.74630        9.01467
C         54.98328       45.92147        7.56458
O         54.23709       46.83221        7.23055
C         54.19277       45.13366        9.80164
C         53.79710       43.81857        9.19572
O         54.70834       42.83239        9.07672
O         52.66216       43.64868        8.77946
H         54.96976       47.70376        9.77177
H         56.20928       45.02890        9.07168
H         53.32192       45.82742        9.79897
H         54.50019       44.96802       10.85580
N         55.43389       45.01970        6.64637
C         55.13422       45.12221        5.23455
C         55.95576       46.19335        4.55746
O         55.76757       46.39314        3.36712
H         55.98942       44.20938        6.96185
H         54.04403       45.28305        5.09408
H         55.40547       44.16529        4.73699
N         56.94223       46.86233        5.22560
C         57.85050       47.79757        4.58361
C         57.83456       49.14213        5.28436
O         57.17129       49.31384        6.29688
C         59.28568       47.19151        4.55363
C         59.85244       46.84320        5.94235
O         59.32453       46.06159        3.71826
H         57.11723       46.66299        6.21848
H         57.54423       47.98345        3.53111
H         59.97454       47.93386        4.10211
H         58.74846       45.36183        4.12133
H         60.89789       46.48500        5.83786
H         59.84925       47.73063        6.60807
H         59.26658       46.03434        6.42608
N         58.57777       50.15051        4.75651
C         58.71725       51.47511        5.34321
C         58.16206       52.50016        4.36708
O         57.38898       53.35868        4.77254
C         60.22012       51.78391        5.64316
C         60.94476       50.57207        6.28734
C         60.31661       53.03163        6.54849
C         62.44612       50.79067        6.48862
H         59.10087       49.94951        3.89555
H         58.16135       51.53060        6.30644
H         60.73812       51.98667        4.67908
H         60.86589       49.70769        5.59704
H         60.47061       50.29509        7.25317
H         59.80480       53.90167        6.08906
H         59.84307       52.82521        7.53438
H         61.36871       53.33117        6.72310
H         62.64664       51.57679        7.24273
H         62.90928       49.84852        6.85055
H         62.92672       51.06857        5.52552
N         58.50647       52.44305        3.04625
C         58.10409       53.40795        2.03683
C         59.35176       53.91307        1.33061
O         60.43630       53.38016        1.54403
C         57.12174       52.74806        1.03182
C         55.81797       52.33456        1.72311
O         56.80644       53.64205       -0.00464
H         59.10109       51.67112        2.71425
H         57.60172       54.27837        2.51524
H         57.62014       51.84327        0.60769
H         56.54539       53.09544       -0.79200
H         56.01009       51.60807        2.53913
H         55.31071       53.22968        2.14473
H         55.13524       51.86004        0.98646
N         59.27742       54.98311        0.50239
C         60.44327       55.57386       -0.12946
C         60.96206       56.67603        0.76183
O         62.13293       56.64785        1.11234
C         60.09659       56.05283       -1.56169
C         61.31145       56.67243       -2.26393
O         59.04930       56.98860       -1.52990
H         58.37554       55.47862        0.42742
H         61.25549       54.81700       -0.23720
H         59.77352       55.15153       -2.13464
H         58.64555       57.00161       -2.43683
H         61.65150       57.58462       -1.72818
H         62.14823       55.94379       -2.30787
H         61.03989       56.96058       -3.30140
N         60.13349       57.67370        1.17698
C         60.58642       58.80156        1.97791
C         59.85904       58.86979        3.30792
O         58.90570       58.13423        3.52205
C         60.43572       60.08400        1.13304
C         58.97045       60.43960        0.77917
C         58.86687       61.55302       -0.27522
C         59.27601       61.06210       -1.68077
N         59.15072       62.13031       -2.67015
H         59.14610       57.63744        0.89499
H         61.66642       58.68354        2.21255
H         61.02294       59.90152        0.21126
H         60.89501       60.95109        1.65458
H         58.46685       60.76633        1.71453
H         58.40331       59.57558        0.38053
H         59.47637       62.42738        0.03792
H         57.80297       61.87171       -0.33388
H         58.61533       60.21489       -1.97608
H         60.32263       60.69634       -1.69202
H         58.16926       62.49004       -2.69541
H         59.80968       62.90789       -2.43653
H         59.39634       61.75119       -3.61364
N         60.29668       59.73315        4.26875
C         59.65442       59.88928        5.57033
C         59.55624       58.55635        6.32273
O         58.43119       58.14257        6.56666
C         60.34820       61.02302        6.36114
C         59.70744       61.29001        7.72745
C         60.36174       62.47044        8.38842
O         61.67812       62.44483        8.67391
O         59.70411       63.46044        8.66669
H         61.12265       60.31259        4.05362
H         58.61251       60.23869        5.38631
H         60.27269       61.94991        5.75005
H         61.42666       60.82018        6.49021
H         59.82299       60.40161        8.38460
H         58.62319       61.49466        7.59131
N         60.61576       57.78434        6.70530
C         62.00843       58.11908        6.51885
H         62.64024       57.27195        6.86239
H         62.22858       58.30795        5.44932
H         62.28200       58.98578        7.14827
H         60.41326       56.87959        7.16026
Ca        58.45642       47.45039       15.37867
O         61.24542       45.69885       15.03706
H         61.78701       45.10965       15.61974
H         60.95093       45.11114       14.29636

Ca 1.0



