%chk=apoCaM-CA-Ng.loop2.water3.frame275.chk
%nprocshared=20
%mem=10GB
%nosave
#b3lyp/svp scf=(tight,noincore,xqc) Test 
#IOP(5/87=12) Density=Current Pop=(MK,readradii) iop(6/33=2) iop(6/42=6)

apoCaM-CA-Ng.loop2.water3.frame275 

   -2  1 
C         27.27046       57.11210       29.65751
C         27.70561       58.07382       30.72144
O         27.49974       57.79681       31.89455
H         26.53102       57.61391       28.99675
H         28.14216       56.78691       29.05467
H         26.78471       56.22017       30.10918
N         28.32288       59.23968       30.38055
C         28.64203       60.27430       31.35800
C         27.34120       60.95168       31.76044
O         26.67279       61.49242       30.88839
C         29.63033       61.29096       30.74559
C         30.12448       62.32824       31.72206
O         29.71408       62.33710       33.00582
O         30.92899       63.16601       31.34770
H         28.54475       59.40352       29.38572
H         29.15691       59.80294       32.22558
H         29.15956       61.80026       29.87643
H         30.52021       60.73324       30.37915
N         26.88839       60.92699       33.04822
C         25.58363       61.47962       33.42126
C         24.42461       60.69944       32.80265
O         23.28722       61.12840       32.93707
C         25.41409       61.46064       34.94429
H         27.48069       60.49307       33.77305
H         25.54143       62.53672       33.07744
H         26.22494       62.04628       35.42487
H         24.43952       61.91016       35.23335
H         25.44976       60.41552       35.32333
N         24.63817       59.51868       32.15554
C         23.61710       58.66021       31.58750
C         22.68803       58.20471       32.69797
O         21.48165       58.37963       32.59071
C         22.90524       59.37806       30.40608
C         22.23669       58.44649       29.43020
O         21.66501       58.89702       28.45097
O         22.44457       57.12596       29.52451
H         25.58756       59.15331       32.08913
H         24.15250       57.76753       31.18832
H         23.67470       59.90869       29.80403
H         22.18870       60.13420       30.78848
N         23.21315       57.65792       33.83769
C         22.40176       57.29584       34.98762
C         22.50476       55.82624       35.28775
O         22.77246       55.45663       36.42222
H         24.23382       57.52611       33.91076
H         21.32923       57.51485       34.80079
H         22.71112       57.89749       35.87041
N         22.24064       54.92787       34.30315
C         22.10424       53.49205       34.52114
C         23.37366       52.87877       35.11434
O         24.42943       52.94730       34.50182
C         21.68893       52.83199       33.18615
C         21.11161       51.44267       33.32317
N         21.84039       50.40626       33.78991
O         19.95162       51.25141       32.98813
H         22.05332       55.30529       33.36060
H         21.25642       53.35979       35.22936
H         22.54198       52.85017       32.47881
H         20.88114       53.45632       32.74013
H         22.81748       50.52849       34.07197
H         21.42030       49.46829       33.86418
N         23.32242       52.27761       36.33704
C         24.45675       51.68342       37.03263
C         24.96216       50.40186       36.40152
O         24.15247       49.57341       36.01100
H         22.42053       52.26877       36.83733
H         24.09876       51.38539       38.04225
H         25.26849       52.42655       37.18670
N         26.29582       50.10047       36.42527
C         26.81251       48.79362       36.00097
C         26.72152       48.58472       34.49412
O         26.79602       47.44639       34.05113
C         28.26385       48.54128       36.50027
C         29.31456       49.50164       35.91328
O         28.31085       48.55479       37.90677
H         26.93497       50.78495       36.85354
H         26.17893       48.01982       36.49085
H         28.55880       47.51698       36.18194
H         28.26155       49.49713       38.21337
H         30.32137       49.23042       36.29606
H         29.33860       49.42743       34.81074
H         29.10926       50.55539       36.19077
N         26.63104       49.64388       33.64705
C         26.53827       49.54565       32.18962
C         25.31961       50.30755       31.71576
O         24.66881       50.93958       32.53526
C         27.84019       50.08887       31.51748
C         28.29213       51.44009       32.14275
C         28.94095       49.01816       31.59769
C         29.47993       52.09481       31.44204
H         26.63965       50.59038       34.05572
H         26.37810       48.49211       31.86847
H         27.64414       50.24028       30.43391
H         28.58153       51.28985       33.20556
H         27.44520       52.15884       32.10689
H         29.20119       48.78067       32.64591
H         28.58969       48.08570       31.10465
H         29.85350       49.33567       31.05593
H         29.23079       52.30878       30.38269
H         29.71828       53.05153       31.95464
H         30.38493       51.45709       31.49529
N         24.94072       50.29816       30.40219
C         23.78106       51.04710       29.93625
C         22.75130       50.12203       29.31234
O         22.21797       50.41854       28.25475
C         24.27293       52.15674       28.99718
C         23.25401       53.22971       28.81338
O         22.87829       53.86264       29.78831
O         22.82888       53.60019       27.59552
H         25.49295       49.76381       29.71347
H         23.28367       51.52233       30.80282
H         24.61801       51.73308       28.03009
H         25.14476       52.65914       29.47315
N         22.44645       48.95049       29.93426
C         21.48128       47.96876       29.44445
C         21.78770       47.54697       28.00404
O         22.92248       47.16658       27.74788
C         21.56005       46.71645       30.34969
C         20.53480       45.67627       29.98320
C         19.17184       45.91138       30.22642
C         20.93180       44.46256       29.39749
C         18.22010       44.94662       29.88466
C         19.97625       43.50447       29.04922
C         18.62162       43.74550       29.29356
H         22.95516       48.73410       30.80584
H         20.46590       48.40500       29.52589
H         21.41681       46.98790       31.41852
H         22.58631       46.29447       30.25497
H         18.84908       46.83892       30.68309
H         21.97760       44.26324       29.19814
H         17.17140       45.13141       30.07672
H         20.28676       42.57546       28.58916
H         17.88350       43.00132       29.02542
N         20.83317       47.52433       27.01581
C         21.08578       47.00014       25.68003
C         21.88726       47.93981       24.79211
O         22.27587       47.51054       23.71444
C         19.67998       46.72324       25.13376
C         18.86567       47.82497       25.78267
C         19.43027       47.84103       27.20016
H         21.63584       46.03463       25.73829
H         19.59799       46.64343       24.02825
H         19.31996       45.76658       25.57792
H         19.13945       48.78264       25.28668
H         17.76239       47.69733       25.73355
H         19.25020       48.83656       27.65675
H         18.97156       47.03901       27.81493
N         22.16832       49.22424       25.14924
C         23.00875       50.09411       24.33376
C         24.44788       49.62627       24.41820
O         25.02387       49.29556       23.39124
C         22.89474       51.56607       24.78276
C         21.48190       52.11357       24.51540
C         21.34952       53.54781       24.93463
O         22.06060       54.40638       24.43676
O         20.42646       53.89636       25.85132
H         21.76224       49.59975       26.01437
H         22.66861       50.05873       23.27322
H         23.61878       52.17748       24.19859
H         23.14907       51.65865       25.85932
H         20.72956       51.50920       25.06483
H         21.26040       52.04436       23.42806
N         25.08786       49.57265       25.62169
C         26.46343       49.14495       25.78170
H         27.05313       49.96783       26.23784
H         26.49872       48.26367       26.45575
H         26.93787       48.86840       24.81669
H         24.57853       49.84561       26.47481
Ca        22.24369       55.74295       27.76873
O         19.58007       55.46337       28.83127
H         18.60850       55.48269       28.64466
H         19.65789       55.06004       29.73213
O         24.46952       57.05350       26.26051
H         24.74216       57.06180       25.30883
H         24.53339       57.99882       26.54812
O         20.19912       57.05780       25.72213
H         20.36252       58.02488       25.85732
H         19.21741       56.95727       25.80323

Ca 1.0



