%chk=apoCaM-CA-Ng.loop1.water3.frame405.chk
%nprocshared=20
%mem=10GB
%nosave
#b3lyp/svp scf=(tight,noincore,xqc) Test 
#IOP(5/87=12) Density=Current Pop=(MK,readradii) iop(6/33=2) iop(6/42=6)

apoCaM-CA-Ng.loop1.water3.frame405 

   0  1 
C        -10.77670       92.36685       -5.39133
C        -11.33614       91.29298       -4.50460
O        -10.76354       90.21664       -4.41306
H         -9.84614       92.02900       -5.89245
H        -11.52681       92.63679       -6.16491
H        -10.55028       93.26912       -4.78333
N        -12.47222       91.53965       -3.80188
C        -13.09082       90.58737       -2.88379
C        -13.86072       89.47417       -3.61258
O        -14.56703       88.73895       -2.94709
C        -14.05637       91.34340       -1.93284
C        -13.36529       92.38148       -1.08233
O        -13.35693       92.25253        0.25851
O        -12.83423       93.35555       -1.59083
H        -12.88927       92.47910       -3.89465
H        -12.31790       90.13587       -2.22658
H        -14.51033       90.61685       -1.23362
H        -14.87173       91.82420       -2.50968
N        -13.81877       89.29453       -4.96378
C        -14.68053       88.35817       -5.69113
C        -13.86166       87.23513       -6.31381
O        -12.85300       87.54456       -6.93251
C        -15.41045       89.13048       -6.81269
C        -16.62311       89.96668       -6.35491
C        -16.36548       90.93390       -5.19447
C        -17.60346       91.79043       -4.90561
N        -17.39880       92.62307       -3.72102
H        -13.17975       89.86443       -5.53183
H        -15.44876       87.92466       -5.04159
H        -15.82088       88.40866       -7.55266
H        -14.67396       89.76394       -7.35498
H        -17.43275       89.27315       -6.03873
H        -16.98125       90.53185       -7.24222
H        -15.50108       91.59504       -5.42072
H        -16.16029       90.33943       -4.28541
H        -18.48420       91.13462       -4.73425
H        -17.81616       92.43648       -5.78500
H        -17.24927       92.01787       -2.88171
H        -16.57330       93.25054       -3.85548
H        -18.25123       93.20607       -3.56065
N        -14.23221       85.90927       -6.29639
C        -15.43575       85.31151       -5.70263
C        -16.70188       85.95683       -6.24107
O        -17.43194       86.56848       -5.47255
C        -15.38951       85.26403       -4.15604
C        -14.22834       84.47510       -3.64038
O        -13.32865       83.94244       -4.48745
O        -14.06408       84.36510       -2.43578
H        -13.62129       85.25295       -6.80839
H        -15.48178       84.23710       -5.98880
H        -16.31347       84.77156       -3.78276
H        -15.32790       86.27132       -3.71323
N        -17.08991       85.83594       -7.54107
C        -16.39647       85.01248       -8.53026
C        -17.23545       84.81349       -9.78546
O        -18.25550       85.47195       -9.93424
H        -17.98079       86.29162       -7.78922
H        -16.26304       84.00228       -8.09676
H        -15.39421       85.42589       -8.76997
N        -16.95630       83.85640      -10.71625
C        -15.82177       82.94071      -10.68997
C        -16.27514       81.56916      -10.23176
O        -17.26485       81.05449      -10.73565
C        -15.11802       82.86163      -12.06381
C        -15.96538       82.30569      -13.18445
O        -15.64656       81.25903      -13.72580
O        -17.05068       82.96870      -13.62602
H        -17.66064       83.72309      -11.45486
H        -15.04802       83.30180       -9.97948
H        -14.22925       82.20220      -11.93957
H        -14.75103       83.86811      -12.35512
N        -15.56814       80.90898       -9.27330
C        -15.96536       79.62492       -8.73203
C        -17.19582       79.78915       -7.88696
O        -18.19274       79.12566       -8.13275
H        -14.69974       81.32894       -8.90867
H        -15.16094       79.25044       -8.06271
H        -16.10819       78.88115       -9.54736
N        -17.17480       80.68044       -6.85532
C        -18.29418       80.90390       -5.94803
C        -18.78326       82.34255       -6.11099
O        -18.12760       83.10443       -6.80166
C        -17.78747       80.59375       -4.50773
C        -18.88424       80.23484       -3.50484
O        -17.02383       81.66371       -4.00394
H        -16.31378       81.22976       -6.70655
H        -19.11861       80.20747       -6.21269
H        -17.16230       79.66996       -4.54307
H        -16.12759       81.61887       -4.42673
H        -19.60744       81.04142       -3.34135
H        -19.43446       79.33639       -3.85333
H        -18.41909       79.99936       -2.52293
N        -19.92539       82.79079       -5.52120
C        -20.35952       84.19113       -5.58523
C        -20.44414       84.80979       -4.18491
O        -20.86481       85.95312       -4.07373
C        -21.70808       84.31698       -6.35957
C        -22.89078       83.63858       -5.61936
C        -21.54081       83.77920       -7.79523
C        -24.24642       83.89312       -6.28448
H        -20.51105       82.12045       -5.00680
H        -19.62355       84.80703       -6.14678
H        -21.93726       85.40380       -6.43834
H        -22.95840       84.05654       -4.59248
H        -22.72950       82.54327       -5.53958
H        -20.69344       84.28967       -8.30086
H        -21.34485       82.68572       -7.78909
H        -22.44368       83.97309       -8.40821
H        -24.43669       84.98470       -6.36802
H        -24.29943       83.43236       -7.29122
H        -25.05120       83.44194       -5.66699
N        -20.08478       84.10561       -3.07091
C        -20.28360       84.56403       -1.69769
C        -19.43196       85.76333       -1.29543
O        -19.63895       86.25800       -0.19630
C        -20.04374       83.39116       -0.70250
C        -18.57350       82.92882       -0.65335
O        -20.86932       82.31295       -1.06552
H        -19.72345       83.15989       -3.19435
H        -21.35405       84.85487       -1.60747
H        -20.33501       83.74048        0.31457
H        -20.83215       81.65280       -0.32528
H        -18.21562       82.57315       -1.63955
H        -17.91439       83.75206       -0.31872
H        -18.46410       82.09790        0.07460
N        -18.44410       86.26450       -2.09569
C        -17.57509       87.39174       -1.74481
C        -16.68857       87.05937       -0.53755
O        -16.88328       86.02614        0.08486
C        -18.40418       88.69292       -1.53431
C        -19.34233       88.96202       -2.71781
O        -17.54253       89.79018       -1.38491
H        -18.27767       85.82950       -3.01215
H        -16.90170       87.56023       -2.61100
H        -19.02320       88.58350       -0.61526
H        -18.05447       90.50078       -0.91631
H        -18.76386       89.04626       -3.66037
H        -20.08560       88.14616       -2.82436
H        -19.90559       89.90443       -2.54874
N        -15.66882       87.88728       -0.16394
C        -14.84708       87.67983        1.02609
C        -13.38320       87.35164        0.70701
O        -12.62365       87.16867        1.64860
C        -14.93578       88.93837        1.92278
C        -16.37447       89.35256        2.30830
C        -17.21050       88.26528        3.00647
C        -16.57601       87.74600        4.30435
N        -17.43245       86.73990        4.93130
H        -15.47966       88.72214       -0.72410
H        -15.22193       86.81293        1.60918
H        -14.47286       89.79953        1.39155
H        -14.34711       88.77222        2.84950
H        -16.92257       89.66335        1.39282
H        -16.31256       90.24283        2.97209
H        -17.37401       87.41628        2.31245
H        -18.20764       88.69889        3.24039
H        -16.42134       88.59203        5.00964
H        -15.59003       87.28355        4.08466
H        -17.57939       85.93583        4.27806
H        -16.96853       86.38801        5.79957
H        -18.35562       87.16050        5.18545
N        -12.91431       87.21611       -0.56984
C        -11.53364       86.84099       -0.88960
C        -10.53562       87.84098       -0.34090
O        -10.57772       89.00832       -0.70326
C        -11.35092       86.68565       -2.42197
C         -9.89752       86.43434       -2.89213
C         -9.18008       85.29050       -2.20918
O         -8.17782       85.52287       -1.55301
O         -9.59648       84.01421       -2.32530
H        -13.56922       87.33959       -1.34764
H        -11.33111       85.84499       -0.43869
H        -11.69850       87.61013       -2.93404
H        -12.00043       85.86055       -2.76191
H         -9.31761       87.36502       -2.70814
H         -9.90066       86.26544       -3.99065
N         -9.56222       87.41589        0.51125
C         -8.51758       88.28735        0.99667
H         -7.93098       88.68143        0.13892
H         -8.95502       89.12784        1.57287
H         -7.82954       87.71471        1.65538
H         -9.53800       86.42695        0.80356
Ca       -11.33605       83.49074       -3.61848
O         -9.96007       80.33418       -3.14726
H         -9.12372       80.04306       -3.58992
H        -10.40461       79.49116       -2.87846
O        -12.82030       80.14182       -4.67802
H        -12.66786       79.31126       -4.16074
H        -12.66734       79.87788       -5.62007
O        -11.99780       81.72053       -1.15365
H        -12.73821       82.09088       -1.69649
H        -11.52204       82.51632       -0.80582

Ca 1.0



