%chk=apoCaM-CA-Ng.loop3.water5.frame410.chk
%nprocshared=20
%mem=10GB
%nosave
#b3lyp/svp scf=(tight,noincore,xqc) Test 
#IOP(5/87=12) Density=Current Pop=(MK,readradii) iop(6/33=2) iop(6/42=6)

apoCaM-CA-Ng.loop3.water5.frame410 

   0  1 
C        122.79881       86.35145       71.92348
C        123.29678       84.94930       71.71494
O        124.50158       84.74663       71.69943
H        121.68870       86.39288       71.92267
H        123.16445       86.73842       72.89693
H        123.17217       87.00441       71.10665
N        122.41326       83.92992       71.52705
C        122.80162       82.54688       71.28534
C        122.15485       81.65459       72.32875
O        120.93906       81.67958       72.45521
C        122.35462       82.15906       69.86581
C        122.69710       80.73702       69.52789
O        121.81419       79.96212       69.20161
O        123.97484       80.31324       69.57024
H        121.40467       84.14755       71.52457
H        123.90719       82.42839       71.32895
H        122.86791       82.82249       69.13668
H        121.25754       82.31257       69.76050
N        122.91439       80.82021       73.09789
C        122.34934       79.93995       74.11398
C        122.95936       80.24149       75.46272
O        124.17403       80.21856       75.60311
C        122.55896       78.45809       73.76276
C        121.76464       78.06855       72.50711
C        121.76312       76.54692       72.30322
C        120.87466       76.09906       71.12973
N        121.37626       76.56789       69.83894
H        123.93487       80.79463       72.95091
H        121.24979       80.08112       74.19464
H        122.16207       77.86055       74.61477
H        123.63781       78.21620       73.63958
H        122.19518       78.59172       71.62908
H        120.70794       78.39179       72.63624
H        121.34800       76.07578       73.22181
H        122.80022       76.17503       72.15987
H        119.83275       76.46113       71.28301
H        120.84952       74.98752       71.11910
H        121.32538       77.60663       69.78573
H        122.36147       76.24789       69.69622
H        120.77693       76.17539       69.07768
N        122.14045       80.49666       76.52066
C        122.61951       80.78151       77.86415
C        123.46944       79.63645       78.39005
O        123.09139       78.48431       78.22587
C        121.42181       81.01563       78.80356
C        121.88248       81.54991       80.12722
O        121.67157       80.84718       81.24710
O        122.44747       82.62937       80.19321
H        121.12120       80.47723       76.36317
H        123.21377       81.72165       77.83068
H        120.85689       80.06409       78.93411
H        120.73013       81.76743       78.36553
N        124.62681       79.89505       79.06139
C        125.52516       78.86777       79.56636
C        124.94536       77.91882       80.60552
O        125.67930       77.02161       80.99565
H        124.90963       80.87688       79.19244
H        126.41397       79.36024       80.01801
H        125.87637       78.26086       78.70378
N        123.66048       77.99376       81.07115
C        123.08960       76.96463       81.93712
C        121.56711       76.92867       81.82004
O        120.86532       76.85777       82.81778
C        123.66297       77.03165       83.38442
C        123.44833       78.34995       84.15460
N        122.05116       78.57603       84.49455
O        123.98537       79.42837       83.43916
H        123.03759       78.73468       80.73150
H        123.38528       75.97896       81.51190
H        124.76136       76.88084       83.33470
H        123.26107       76.18835       83.98634
H        121.73527       77.77546       85.08850
H        122.00492       79.41042       85.11551
N        120.99493       76.88818       80.58035
C        119.57326       76.67600       80.34688
C        118.63678       77.75442       80.86212
O        117.43680       77.54295       80.76422
H        121.60741       76.92705       79.75225
H        119.29237       75.71274       80.82237
H        119.39872       76.57778       79.25276
N        119.07867       78.93010       81.39021
C        118.19000       79.95032       81.94012
C        118.66039       80.32042       83.33256
O        119.76329       80.82829       83.47766
C        118.16446       81.19555       81.02915
C        117.37889       82.33520       81.64610
C        116.00778       82.20800       81.93249
C        118.03419       83.53744       81.96405
C        115.31211       83.26258       82.53632
C        117.33855       84.58660       82.56822
C        115.97490       84.45153       82.86061
O        115.29546       85.45337       83.45456
H        120.08634       79.11504       81.40138
H        117.14761       79.56838       81.99759
H        117.72940       80.92791       80.04172
H        119.20610       81.52604       80.85273
H        115.47848       81.29318       81.69876
H        119.08967       83.66049       81.75560
H        114.25853       83.15280       82.76134
H        117.86348       85.50129       82.81340
H        115.72192       86.28595       83.70428
N        117.85499       80.10986       84.40700
C        118.24234       80.46268       85.76471
C        118.98187       79.28916       86.36573
O        120.11359       79.45585       86.79194
C        116.99276       80.87549       86.60277
C        116.27954       82.07864       85.92799
C        117.39746       81.22499       88.05101
C        114.96710       82.48440       86.60071
H        116.94312       79.64920       84.26226
H        118.92104       81.34614       85.75180
H        116.28824       80.01476       86.63433
H        116.02410       81.81047       84.88297
H        116.96140       82.95709       85.89998
H        116.50756       81.44040       88.67557
H        117.91638       80.37764       88.53662
H        118.07699       82.10310       88.06945
H        115.13037       82.84452       87.63583
H        114.50490       83.31575       86.02708
H        114.26116       81.62714       86.61200
N        118.39776       78.06188       86.42337
C        119.02986       76.90472       87.04634
C        119.25532       77.15691       88.52686
O        120.32035       76.82546       89.02837
C        118.17640       75.64556       86.83337
O        116.90388       75.80266       87.39986
H        117.45669       77.95147       86.01533
H        120.00695       76.69888       86.55305
H        118.68379       74.76786       87.29122
H        118.09169       75.47561       85.73376
H        116.31553       75.14244       86.94959
N        118.30250       77.80049       89.26856
C        118.39478       78.11901       90.69312
C        119.54394       79.05986       91.08525
O        119.64190       79.37434       92.26381
C        118.44138       76.82024       91.50676
H        117.43006       78.08075       88.79555
H        117.45340       78.64103       90.97721
H        119.36879       76.24701       91.30422
H        118.39207       77.04242       92.59348
H        117.56587       76.18701       91.24536
N        120.45431       79.54049       90.18880
C        121.59813       80.36328       90.56812
C        121.17140       81.74418       91.02108
O        120.53317       82.45292       90.25450
C        122.55740       80.51277       89.38419
H        120.37289       79.28225       89.20319
H        122.16794       79.84001       91.36780
H        122.04356       81.01453       88.54517
H        123.44471       81.11461       89.67699
H        122.90476       79.51411       89.04351
N        121.53327       82.20306       92.25302
C        121.24787       83.54411       92.75215
C        119.75025       83.78853       92.79953
O        119.26629       84.73793       92.19655
C        121.99341       84.62983       91.93308
C        123.51346       84.41304       91.90977
C        124.20295       85.53585       91.18662
O        125.10713       86.29796       91.83152
O        123.95213       85.76137       90.01313
H        122.06030       81.57392       92.87775
H        121.62734       83.61091       93.79666
H        121.78745       85.61889       92.40083
H        121.61592       84.65793       90.88833
H        123.75476       83.45603       91.39890
H        123.89670       84.36553       92.95195
N        118.95183       82.94759       93.51222
C        117.51495       83.10668       93.61091
H        117.01690       82.20498       93.19825
H        117.23151       83.22221       94.67751
H        117.14591       83.99447       93.05479
H        119.37889       82.15042       94.00771
Ca       122.72896       81.33094       83.69622
O        123.69241       84.33903       82.66459
H        124.59354       84.33213       82.25529
H        123.80543       84.85889       83.49943
O        125.05055       82.36455       85.09439
H        124.68572       83.22078       85.43175
H        124.91933       81.72629       85.83986
O        120.91246       84.13743       84.22167
H        120.72775       84.53503       85.10951
H        120.89572       84.90580       83.59772
O        121.51897       81.92477       86.19546
H        121.41818       82.64313       86.86758
H        122.42956       81.56578       86.34568
O        125.03314       81.49203       81.80471
H        125.78008       81.53164       82.45257
H        125.21583       82.22518       81.16647

Ca 1.0



