%chk=apoCaM-CA-Ng.loop2.water4.frame1167.chk
%nprocshared=20
%mem=10GB
%nosave
#b3lyp/svp scf=(tight,noincore,xqc) Test 
#IOP(5/87=12) Density=Current Pop=(MK,readradii) iop(6/33=2) iop(6/42=6)

apoCaM-CA-Ng.loop2.water4.frame1167 

   -2  1 
C        106.36877       52.26618       25.52067
C        106.03353       50.81795       25.80135
O        106.27219       50.01972       24.90717
H        107.44951       52.33985       25.27708
H        105.78721       52.61080       24.63997
H        106.18295       52.98397       26.33356
N        105.49303       50.34280       26.96651
C        105.09802       51.12781       28.13208
C        103.59000       51.01037       28.31666
O        102.90294       51.04010       27.30491
C        105.99102       50.73207       29.33340
C        105.92184       49.27079       29.70832
O        104.80006       48.74469       30.22911
O        106.90519       48.55989       29.57524
H        105.32943       49.32660       27.02485
H        105.26901       52.20097       27.97040
H        105.76649       51.35456       30.22357
H        107.03925       50.96020       29.03706
N        102.98689       50.92665       29.54398
C        101.53784       50.83509       29.73000
C        100.95213       49.53745       29.17649
O         99.73482       49.42109       29.13755
C        100.83050       52.07572       29.15015
H        103.56013       50.95470       30.39738
H        101.31745       50.84441       30.82074
H        101.25701       52.99800       29.59907
H        100.91777       52.14291       28.04807
H         99.74726       52.04776       29.39548
N        101.74865       48.49391       28.79473
C        101.24766       47.23958       28.25809
C        101.23814       46.09484       29.31897
O        102.27342       46.01400       30.26417
C        101.86164       46.92717       26.84984
C        103.30059       47.30166       26.48730
O        104.38735       46.81549       27.11590
O        103.48281       48.03880       25.53127
H        102.76479       48.56119       28.91094
H        100.15497       47.31166       28.05910
H        101.24613       47.51338       26.13062
H        101.67644       45.86382       26.59773
N        100.81878       44.80419       28.74395
C        101.15125       43.61223       29.53900
C        102.47781       43.02131       29.11719
O        103.14460       43.56826       28.25080
H         99.77897       44.85955       28.64095
H        100.38613       42.83045       29.33809
H        101.12626       43.82645       30.63044
N        102.91218       41.86366       29.68818
C        104.16499       41.21033       29.31621
C        104.12782       40.78914       27.85589
O        103.25523       40.02275       27.47159
C        104.43194       40.02408       30.26821
C        105.75889       39.34348       30.03539
N        105.84665       37.99247       30.02358
O        106.77232       40.01486       29.90936
H        102.32586       41.43978       30.42454
H        104.99116       41.93856       29.47103
H        103.60181       39.28425       30.22567
H        104.46125       40.44020       31.29749
H        105.01466       37.40584       30.18410
H        106.75928       37.52911       29.90015
N        105.03507       41.30371       26.97599
C        105.00456       41.05489       25.54326
C        105.26656       39.61852       25.14699
O        105.48454       38.78563       26.01528
H        105.74820       41.96274       27.32406
H        105.78105       41.68809       25.06217
H        104.01627       41.34957       25.16493
N        105.29648       39.23292       23.83369
C        105.08546       40.14459       22.70214
C        103.65620       40.66773       22.64212
O        102.75440       40.02382       23.15995
C        105.43288       39.47063       21.35135
C        106.92651       39.12876       21.25808
O        104.65749       38.30987       21.18661
H        105.52294       38.24523       23.63828
H        105.77155       41.01186       22.82157
H        105.20212       40.19425       20.53438
H        104.73159       38.04409       20.23298
H        107.53391       40.05358       21.35969
H        107.23130       38.41029       22.04638
H        107.14855       38.67810       20.26750
N        103.39965       41.86457       22.03064
C        102.07676       42.48359       21.94224
C        101.77692       42.79303       20.47074
O        102.54845       43.55048       19.89761
C        102.06777       43.82219       22.75334
C        102.55810       43.67303       24.21464
C        100.68360       44.48910       22.71839
C        101.68931       42.77919       25.10576
H        104.19726       42.38713       21.63617
H        101.31971       41.81149       22.38302
H        102.78858       44.52218       22.27345
H        102.60937       44.67952       24.68214
H        103.59703       43.28917       24.19789
H        100.70357       45.44769       23.27993
H        100.37730       44.71495       21.67659
H         99.92122       43.82054       23.16635
H        102.14506       42.71666       26.11207
H        100.67066       43.19820       25.22506
H        101.61873       41.75097       24.70394
N        100.71829       42.30304       19.75291
C         99.75469       41.29896       20.19407
C         98.38813       41.49040       19.52006
O         98.21793       42.40976       18.73006
C        100.35148       39.90115       19.90026
C        100.66477       39.69076       18.43993
O        101.93533       39.47054       18.05060
O         99.77509       39.70992       17.60416
H        100.68622       42.57016       18.75547
H         99.56354       41.38644       21.28098
H         99.66777       39.09692       20.24031
H        101.29399       39.79678       20.48069
N         97.37140       40.61812       19.78463
C         96.05568       40.64417       19.14740
C         94.95566       40.66445       20.21205
O         94.96796       39.76903       21.04772
C         95.89283       39.35530       18.30089
C         94.49731       39.22426       17.72223
C         93.63529       38.22269       18.20425
C         94.03075       40.10708       16.73270
C         92.32724       38.12131       17.72438
C         92.71926       40.00106       16.25335
C         91.86744       39.01203       16.75265
H         97.55130       39.85084       20.44944
H         95.96438       41.49899       18.45280
H         96.09392       38.48626       18.96533
H         96.64566       39.32112       17.48308
H         93.96776       37.53216       18.96895
H         94.67486       40.88565       16.34346
H         91.66778       37.35644       18.11384
H         92.35879       40.69051       15.50074
H         90.85068       38.93575       16.38890
N         93.91253       41.55994       20.21160
C         93.69150       42.60912       19.22937
C         94.69625       43.73188       19.32674
O         95.41625       43.95227       18.36258
C         92.24915       43.08215       19.48644
C         91.61869       41.82554       20.06059
C         92.72109       41.36932       21.01113
H         93.71377       42.14454       18.22765
H         92.20865       43.83247       20.30393
H         91.74318       43.52100       18.60012
H         90.63016       41.98105       20.54185
H         91.51418       41.07378       19.24418
H         92.76598       42.05043       21.88989
H         92.56089       40.32199       21.34779
N         94.77651       44.51353       20.44551
C         95.68545       45.63923       20.54083
C         94.89216       46.90600       20.25444
O         93.98092       47.20275       21.01488
C         96.35273       45.75900       21.93370
C         97.17204       44.55469       22.43307
C         96.35407       43.45285       23.05735
O         96.49209       43.18795       24.37169
O         95.59019       42.77621       22.39449
H         94.10600       44.37172       21.21466
H         96.50452       45.51395       19.80432
H         95.61389       46.02922       22.72058
H         97.06194       46.61211       21.84145
H         97.81539       44.94451       23.25085
H         97.83352       44.16106       21.63242
N         95.13344       47.71134       19.18084
C         96.15522       47.45585       18.18932
H         97.15871       47.45149       18.66398
H         95.96511       46.48415       17.68727
H         96.13569       48.25204       17.41543
H         94.54537       48.54965       19.05322
Ca       104.14712       45.99964       29.11939
O        105.73818       43.60388       31.48386
H        105.11981       42.94214       31.88397
H        106.62159       43.15677       31.49462
O        106.86189       46.47188       32.00822
H        106.80453       46.34772       32.98895
H        107.82188       46.35082       31.79854
O        103.89436       45.84034       32.84462
H        104.26764       45.38798       33.64234
H        102.92868       45.93445       33.04144
O        106.92336       44.98582       28.43775
H        107.08468       44.02787       28.62909
H        107.76652       45.43771       28.69311

Ca 1.0



