%chk=apoCaM-CA-Ng.loop4.water5.frame5.chk
%nprocshared=20
%mem=10GB
%nosave
#b3lyp/svp scf=(tight,noincore,xqc) Test 
#IOP(5/87=12) Density=Current Pop=(MK,readradii) iop(6/33=2) iop(6/42=6)

apoCaM-CA-Ng.loop4.water5.frame5 

   -3  1 
C         67.61222       39.99911       93.63649
C         68.66326       40.70652       94.43668
O         68.89315       41.86250       94.16252
H         66.65070       40.54928       93.72281
H         67.91606       39.98766       92.56680
H         67.46748       38.95590       93.97962
N         69.32418       40.09983       95.46114
C         70.38487       40.72696       96.25560
C         69.96699       42.09358       96.81016
O         70.68131       43.05378       96.60446
C         71.77065       40.69354       95.51343
C         71.83596       41.44961       94.20789
O         71.99771       40.85497       93.15474
O         71.56912       42.76309       94.20142
H         69.04491       39.14100       95.71624
H         70.54365       40.07863       97.14517
H         72.01164       39.62741       95.30780
H         72.55735       41.08815       96.19105
N         68.81846       42.22990       97.54106
C         68.32062       43.45055       98.20247
C         69.23799       43.86393       99.35419
O         68.84439       43.65731      100.49439
C         68.00049       44.62116       97.22569
C         67.41532       45.87096       97.93843
C         67.07084       44.17737       96.08443
C         66.07069       45.66348       98.64427
H         68.24118       41.38310       97.66004
H         67.35378       43.15140       98.66567
H         68.94599       44.94927       96.76517
H         67.27761       46.66743       97.17729
H         68.14603       46.24717       98.68637
H         67.53217       43.35966       95.50711
H         66.09571       43.81455       96.46714
H         66.89695       45.02067       95.38175
H         66.15342       44.91153       99.45446
H         65.74860       46.62274       99.10197
H         65.28276       45.35306       97.92858
N         70.47328       44.41920       99.15537
C         71.42286       44.59806      100.24497
C         71.16085       45.85774      101.05506
O         70.83203       45.69924      102.22236
C         72.88679       44.48860       99.76190
C         73.14525       43.15689       99.10838
O         73.52796       43.10394       97.95064
O         72.96129       42.01550       99.80019
H         70.80038       44.61652       98.20608
H         71.30285       43.73079      100.93671
H         73.56704       44.58140      100.63571
H         73.14373       45.29238       99.04730
N         71.31933       47.14071      100.60791
C         71.70258       47.59354       99.27832
C         73.08659       48.21437       99.31631
O         73.76896       48.05287      100.31911
H         71.17868       47.89380      101.30086
H         70.96666       48.36986       98.99352
H         71.66875       46.79640       98.51415
N         73.59920       48.97501       98.30461
C         72.89206       49.35494       97.08181
C         72.73942       48.18345       96.12520
O         73.60848       47.32285       96.11877
C         73.70319       50.44215       96.32938
C         73.91435       51.67668       97.15984
O         75.16318       52.07716       97.46707
O         72.95951       52.32766       97.54945
H         74.54012       49.37182       98.46101
H         71.90989       49.79236       97.35435
H         73.18429       50.74465       95.39615
H         74.69585       50.02806       96.04207
N         71.77307       48.14478       95.15865
C         70.65980       49.07314       95.05045
C         69.63315       48.86062       96.14102
O         69.75377       47.93799       96.93051
H         71.84323       47.41682       94.43564
H         70.13482       48.91138       94.08408
H         71.03306       50.11652       95.05643
N         68.57646       49.70970       96.22799
C         67.54477       49.64792       97.26081
C         66.15837       49.49607       96.63915
O         65.17451       49.64233       97.35332
C         67.62282       50.95310       98.08273
C         68.97147       51.07349       98.81312
C         69.05487       52.34729       99.61246
N         70.02701       53.25589       99.36389
O         68.24394       52.55752      100.50208
H         68.51553       50.47886       95.54153
H         67.70100       48.80510       97.96609
H         66.81265       50.96067       98.84499
H         67.47851       51.82785       97.40903
H         69.80029       51.04604       98.07437
H         69.09530       50.21130       99.50368
H         70.72285       53.09645       98.62226
H         70.08841       54.12307       99.91716
N         66.00282       49.22873       95.31084
C         64.72976       49.29624       94.60067
C         64.86032       50.41793       93.58671
O         65.97164       50.69898       93.16707
C         64.39395       47.93734       93.93078
C         63.11970       48.00812       93.06937
C         64.21305       46.84363       94.99519
H         66.83554       49.03150       94.73590
H         63.90290       49.55910       95.29892
H         65.23679       47.65568       93.26596
H         62.91409       47.01939       92.60572
H         62.24188       48.30362       93.68356
H         63.24093       48.73548       92.23993
H         63.36241       47.09066       95.66770
H         64.00666       45.86475       94.51120
H         65.12924       46.73565       95.60964
N         63.78027       51.17367       93.24644
C         63.80881       52.36826       92.40595
C         64.07141       52.06995       90.92488
O         63.15305       52.30697       90.15081
C         64.72266       53.45566       93.03004
C         64.65296       54.79666       92.33432
N         63.48311       55.46481       92.21481
O         65.67516       55.30459       91.90017
H         62.87029       50.92569       93.66650
H         62.77528       52.78098       92.44756
H         65.77748       53.11513       93.05369
H         64.40131       53.61202       94.08348
H         62.60618       55.07611       92.58739
H         63.45787       56.38457       91.74961
N         65.26484       51.60894       90.42831
C         65.49914       51.46613       88.99020
C         66.35645       50.26192       88.61587
O         66.99886       49.66666       89.46931
C         66.14969       52.75028       88.41501
C         67.54428       53.02876       88.95342
C         67.74788       53.37586       90.29915
C         68.66204       52.95122       88.10470
C         69.02784       53.62117       90.79431
C         69.94877       53.19508       88.60041
C         70.13612       53.52844       89.94615
O         71.37968       53.76002       90.41236
H         66.06082       51.47240       91.05433
H         64.51816       51.32251       88.48603
H         65.49877       53.62853       88.61387
H         66.19892       52.63290       87.31070
H         66.92057       53.46455       90.97372
H         68.54202       52.68994       87.06142
H         69.15339       53.88360       91.83784
H         70.80121       53.12238       87.93782
H         71.54511       53.99395       91.33736
N         66.39716       49.87503       87.30257
C         67.25120       48.84688       86.70511
C         67.21264       47.50212       87.40226
O         68.11112       46.70201       87.18212
C         68.67117       49.39970       86.39548
C         69.64245       49.62657       87.56866
C         70.20830       48.34814       88.11578
O         70.85866       47.60702       87.39386
O         70.02200       48.02198       89.40649
H         65.77204       50.36755       86.64620
H         66.84816       48.66051       85.68411
H         68.51808       50.37629       85.88635
H         69.17486       48.73584       85.65766
H         69.16058       50.22007       88.36651
H         70.50712       50.21375       87.19102
N         66.18082       47.15693       88.22173
C         66.18842       45.94481       89.01928
C         65.14926       44.97466       88.50810
O         65.51014       43.85675       88.16416
C         65.99364       46.34171       90.49524
C         66.19733       45.20509       91.49653
C         67.58919       44.64453       91.44472
O         67.93292       43.90630       90.53630
O         68.41660       44.84267       92.47787
H         65.37260       47.78854       88.31955
H         67.17610       45.45452       88.92710
H         64.98065       46.77708       90.63940
H         66.73609       47.13079       90.75115
H         65.45537       44.38989       91.35714
H         66.03681       45.62677       92.51142
N         63.84542       45.33924       88.38131
C         62.85843       44.44217       87.82132
H         61.87361       44.95055       87.76163
H         63.16244       44.14356       86.79394
H         62.76290       43.53558       88.45490
H         63.54838       46.28734       88.65504
Ca        70.12490       43.42768       92.63866
O         70.87907       45.28452       94.89899
H         69.91645       45.12643       94.73863
H         70.93374       45.62544       95.82648
O         70.66591       44.79948       89.59045
H         70.15161       44.35327       88.87180
H         71.42025       45.23612       89.12133
O         71.00221       46.78263       91.96587
H         70.12723       47.24576       91.96713
H         71.66226       47.49682       91.77839
O         71.15370       41.69948       90.24057
H         71.22478       40.98812       89.55616
H         70.50489       41.34307       90.89796
O         73.26050       44.55581       91.69569
H         73.34393       44.46413       90.71337
H         73.56761       45.47798       91.88489

Ca 1.0



