%chk=apoCaM-CA-Ng.loop1.water4.frame688.chk
%nprocshared=20
%mem=10GB
%nosave
#b3lyp/svp scf=(tight,noincore,xqc) Test 
#IOP(5/87=12) Density=Current Pop=(MK,readradii) iop(6/33=2) iop(6/42=6)

apoCaM-CA-Ng.loop1.water4.frame688 

   0  1 
C         85.24060       43.94455       66.76672
C         83.76511       44.10975       66.54829
O         83.36766       44.52467       65.46933
H         85.74519       44.92404       66.63318
H         85.46193       43.57503       67.79105
H         85.64619       43.21717       66.03407
N         82.88663       43.80053       67.53929
C         81.44290       43.95934       67.40540
C         81.05727       45.43128       67.05747
O         81.73404       46.37404       67.84538
C         80.69841       43.32670       68.62470
C         81.22864       43.66728       69.99226
O         81.22656       44.81132       70.40331
O         81.69763       42.68229       70.78472
H         83.26864       43.43428       68.42449
H         81.09432       43.36507       66.53222
H         80.80035       42.22373       68.52538
H         79.61063       43.54549       68.58051
N         79.59868       45.59205       67.07008
C         78.98528       46.89679       66.73237
C         77.99633       47.23516       67.84555
O         77.86507       48.39875       68.19729
C         78.24632       46.83656       65.36713
C         79.21884       46.72587       64.17861
C         78.48180       46.45080       62.85583
C         79.45581       46.47820       61.66541
N         78.79827       46.05778       60.42706
H         79.14224       44.80961       66.54326
H         79.74940       47.70631       66.69647
H         77.64301       47.76003       65.21811
H         77.54292       45.97429       65.37750
H         79.93573       45.89359       64.34317
H         79.78981       47.67810       64.10804
H         77.68554       47.20770       62.68211
H         78.00727       45.44702       62.92531
H         80.31445       45.79858       61.85966
H         79.84934       47.51274       61.54443
H         79.47506       46.14347       59.63396
H         78.50398       45.05679       60.50528
H         77.96463       46.65667       60.22845
N         77.37035       46.23063       68.52836
C         76.53959       46.39477       69.72066
C         77.30381       47.12015       70.82409
O         78.38756       46.66842       71.16067
C         76.16991       44.98209       70.23987
C         75.36951       45.00114       71.51044
O         75.87923       44.45266       72.63069
O         74.25754       45.50107       71.53423
H         77.53090       45.26511       68.20645
H         75.61182       46.93400       69.45245
H         77.11326       44.42060       70.43282
H         75.60086       44.42949       69.46196
N         76.80989       48.19079       71.51302
C         75.49814       48.78662       71.33315
C         75.41633       49.61996       70.08769
O         76.21203       50.53656       69.94784
H         77.38214       48.56538       72.28621
H         75.31454       49.48756       72.17662
H         74.70712       48.01174       71.38487
N         74.44971       49.39475       69.15342
C         74.28190       50.26363       67.99177
C         73.84298       51.67814       68.37942
O         73.90336       52.55281       67.52597
C         73.31927       49.63480       66.95636
C         71.96394       49.28443       67.51660
O         71.58415       48.12340       67.50667
O         71.16102       50.23882       68.02261
H         73.82050       48.58746       69.28009
H         75.27208       50.34984       67.49140
H         73.79135       48.70229       66.57468
H         73.19111       50.32187       66.09216
N         73.36532       51.97959       69.62480
C         72.93786       53.31729       70.00584
C         74.07802       54.24837       70.37672
O         73.78347       55.38679       70.71192
H         73.22202       51.22773       70.31372
H         72.30291       53.24160       70.91495
H         72.30678       53.75585       69.20130
N         75.38525       53.84655       70.38742
C         76.48423       54.71015       70.81702
C         77.21124       54.12051       72.01657
O         76.92503       53.00620       72.43177
C         77.46656       54.97810       69.64663
C         78.17413       53.71570       69.13867
O         76.77828       55.57271       68.57751
H         75.61694       52.88944       70.10510
H         76.08687       55.69552       71.14448
H         78.27444       55.66646       69.99011
H         76.70536       56.54127       68.78513
H         77.44791       52.98191       68.73393
H         78.87867       53.98872       68.32478
H         78.76028       53.23819       69.95223
N         78.17605       54.85879       72.62875
C         78.93144       54.42278       73.79639
C         78.16071       54.80950       75.04558
O         78.02807       53.98141       75.93753
C         80.37018       55.01568       73.74481
C         81.08426       54.70253       72.39664
C         81.22397       54.54057       74.93499
C         81.29469       53.21398       72.09425
H         78.33980       55.81819       72.28706
H         79.03327       53.31516       73.79586
H         80.29307       56.12395       73.81251
H         82.07612       55.20400       72.38745
H         80.49808       55.13867       71.55999
H         80.77086       54.85956       75.89612
H         81.31787       53.43466       74.94809
H         82.24127       54.98423       74.87659
H         81.95052       52.74040       72.85231
H         80.32946       52.67012       72.04683
H         81.78771       53.10978       71.10468
N         77.51234       56.00776       75.11609
C         76.57725       56.34873       76.18314
C         76.72381       57.80404       76.59174
O         77.50861       58.52288       75.98356
C         75.13198       56.01440       75.72353
C         74.70875       56.77437       74.45601
O         75.04769       54.63272       75.48233
H         77.56513       56.64250       74.30505
H         76.78958       55.73526       77.08718
H         74.43432       56.27790       76.55062
H         74.08342       54.39970       75.44559
H         74.75694       57.87091       74.61766
H         75.35358       56.50096       73.59449
H         73.66373       56.50609       74.19199
N         75.99302       58.30673       77.62898
C         76.07445       59.69578       78.05752
C         76.64593       59.75336       79.46516
O         77.71329       60.32559       79.63225
C         74.69359       60.39423       77.89383
C         74.78170       61.90389       78.12860
O         73.72426       59.86048       78.75836
H         75.35963       57.67532       78.14325
H         76.77565       60.25068       77.39381
H         74.35491       60.27077       76.83767
H         73.39313       59.01999       78.34880
H         73.78362       62.36651       77.96815
H         75.11483       62.12833       79.16328
H         75.49277       62.36218       77.40807
N         75.99114       59.19233       80.52610
C         76.48881       59.25627       81.89677
C         76.40220       57.88784       82.55672
O         75.44146       57.17377       82.30223
C         75.63761       60.28007       82.67191
C         76.31466       60.72293       83.97898
C         75.50295       61.81954       84.67883
C         76.30312       62.44355       85.83060
N         75.53457       63.49707       86.49246
H         75.07223       58.75662       80.37264
H         77.53755       59.62714       81.90761
H         74.61151       59.88716       82.84762
H         75.55172       61.19283       82.04076
H         77.31204       61.13885       83.71262
H         76.46014       59.86704       84.67178
H         74.54771       61.38990       85.05262
H         75.26990       62.62818       83.95181
H         77.23903       62.88562       85.41884
H         76.58151       61.66385       86.57315
H         74.68505       63.08860       86.94481
H         76.12979       63.94503       87.22623
H         75.24957       64.22788       85.80003
N         77.30501       57.49630       83.50256
C         77.15270       56.23808       84.23055
C         77.29712       55.03151       83.30439
O         76.33839       54.27658       83.22104
C         78.07454       56.14792       85.46821
C         77.72644       57.21662       86.52293
C         78.54288       57.09044       87.78317
O         78.33149       57.95495       88.79337
O         79.38627       56.21578       87.91057
H         78.07348       58.13689       83.75149
H         76.12016       56.20718       84.65132
H         79.13921       56.25279       85.20119
H         77.92010       55.14921       85.93553
H         76.65505       57.11958       86.80327
H         77.89138       58.23016       86.10216
N         78.40336       54.74787       82.55463
C         79.61071       55.54269       82.50349
H         80.31777       55.09283       81.77427
H         79.38364       56.57515       82.17022
H         80.12777       55.54382       83.47814
H         78.37568       53.90849       81.95429
Ca        80.49529       47.25864       69.53155
O         80.66922       49.04750       72.66636
H         80.94637       49.11618       73.61450
H         79.87796       49.63837       72.59496
O         80.88681       50.16217       69.75873
H         79.91821       50.29479       69.60148
H         81.31341       50.39058       68.89517
O         80.73017       45.93240       73.11196
H         80.01786       46.05756       73.78805
H         81.54080       46.31987       73.52794
O         83.67008       48.25120       69.24953
H         84.21153       47.58715       68.75304
H         83.53558       48.99161       68.60603

Ca 1.0



