%chk=apoCaM-CA-Ng.loop1.water4.frame7.chk
%nprocshared=20
%mem=10GB
%nosave
#b3lyp/svp scf=(tight,noincore,xqc) Test 
#IOP(5/87=12) Density=Current Pop=(MK,readradii) iop(6/33=2) iop(6/42=6)

apoCaM-CA-Ng.loop1.water4.frame7 

   0  1 
C         44.18035       47.05233       67.74483
C         42.95974       47.63391       67.08945
O         42.33173       48.50558       67.67350
H         44.92980       47.85144       67.92115
H         43.89738       46.59511       68.71612
H         44.64686       46.26563       67.11386
N         42.56261       47.19760       65.86063
C         41.39429       47.72193       65.15534
C         40.04767       47.37045       65.80885
O         39.03497       47.75977       65.25024
C         41.41023       47.29866       63.66385
C         41.24506       45.82388       63.42145
O         42.17052       44.94921       63.85707
O         40.28710       45.41665       62.78345
H         43.16182       46.50528       65.38995
H         41.48181       48.83158       65.13443
H         42.36506       47.62788       63.19924
H         40.59006       47.83940       63.14089
N         39.94831       46.68548       66.99203
C         38.67912       46.38855       67.65633
C         38.54561       47.25036       68.90280
O         39.47101       47.23305       69.70184
C         38.62937       44.92218       68.14935
C         38.48562       43.82363       67.09393
C         39.69321       43.65093       66.17114
C         39.50535       42.38734       65.31645
N         40.63199       42.17664       64.41186
H         40.79909       46.39825       67.48858
H         37.82820       46.55798       66.98084
H         37.72287       44.82107       68.78746
H         39.50892       44.70559       68.79657
H         37.56540       43.99529       66.49420
H         38.35472       42.87521       67.66210
H         40.61597       43.53793       66.78178
H         39.79519       44.53892       65.51730
H         38.56838       42.47002       64.72190
H         39.41593       41.50522       65.98988
H         41.52793       42.12992       64.94962
H         40.49378       41.27553       63.90053
H         40.67029       42.94784       63.71115
N         37.42729       47.97207       69.23114
C         36.18667       48.14144       68.47293
C         35.52811       46.82625       68.06163
O         35.32821       46.62186       66.87167
C         36.39963       49.09263       67.27648
C         36.93349       50.41959       67.72296
O         37.99032       50.83962       67.28080
O         36.24227       51.15343       68.61424
H         37.45041       48.44937       70.14557
H         35.45225       48.66039       69.12718
H         35.42143       49.27806       66.79140
H         37.07921       48.64755       66.52698
N         35.11982       45.87171       68.94446
C         35.24357       45.91024       70.39060
C         33.87275       45.78431       71.02113
O         33.13466       44.90070       70.60721
H         34.68050       45.02460       68.54814
H         35.78305       46.79763       70.75193
H         35.83855       45.02246       70.69240
N         33.43774       46.55345       72.06035
C         34.23345       47.55397       72.76477
C         34.45279       48.79368       71.92328
O         35.59102       49.20575       71.75302
C         33.53323       47.97548       74.07880
C         33.28946       46.80373       74.99076
O         32.03313       46.49227       75.36373
O         34.22378       46.13257       75.39900
H         32.49594       46.34232       72.42828
H         35.20990       47.10625       73.05976
H         32.55928       48.46292       73.85719
H         34.17243       48.70929       74.61776
N         33.38620       49.47128       71.41751
C         33.48423       50.75040       70.74026
C         32.89459       50.71551       69.34962
O         32.70750       49.65161       68.77595
H         32.43863       49.09428       71.57068
H         34.52263       51.14271       70.68971
H         32.89456       51.46918       71.34899
N         32.52029       51.89065       68.77606
C         31.90189       52.00941       67.45904
C         32.93952       51.78912       66.37203
O         34.00306       52.38429       66.46918
C         31.25767       53.41281       67.32701
C         30.45182       53.55750       66.03658
O         32.24019       54.41864       67.38174
H         32.63209       52.74654       69.34210
H         31.06509       51.28030       67.37456
H         30.53157       53.52437       68.17002
H         32.00041       55.03548       68.12154
H         29.65712       52.78207       65.99217
H         29.97047       54.55749       66.00372
H         31.11084       53.44855       65.15463
N         32.68200       51.01151       65.27462
C         33.66906       50.82119       64.21038
C         33.24154       51.57916       62.95930
O         32.29577       51.18543       62.29437
C         33.97104       49.30185       63.99574
C         35.27858       49.02811       63.20349
C         32.78779       48.48878       63.43326
C         35.28457       49.44068       61.72923
H         31.74897       50.58611       65.17715
H         34.63037       51.26756       64.54297
H         34.16253       48.88977       65.00695
H         35.48409       47.93579       63.24434
H         36.12267       49.53980       63.71559
H         31.88578       48.60537       64.06686
H         32.53073       48.78124       62.39700
H         33.04695       47.40903       63.41881
H         35.17017       50.53202       61.60961
H         36.26222       49.16357       61.28123
H         34.48796       48.91769       61.16288
N         33.89469       52.72707       62.61455
C         33.62059       53.50208       61.40488
C         34.90480       53.81205       60.62899
O         34.80001       54.50288       59.62399
C         32.84898       54.80661       61.75250
C         33.55242       55.69840       62.77964
O         31.54432       54.51235       62.18438
H         34.60594       53.09385       63.26412
H         32.96081       52.93312       60.71300
H         32.73841       55.39596       60.81588
H         31.61242       53.95212       62.99739
H         32.96500       56.62888       62.93005
H         33.61698       55.17391       63.75309
H         34.57172       55.97095       62.43568
N         36.13397       53.33515       61.00401
C         37.39504       53.61509       60.31550
C         37.79898       55.07517       60.47440
O         37.05432       55.96767       60.09911
C         37.39076       53.16697       58.82968
C         37.07556       51.67112       58.69041
O         38.63279       53.44624       58.22904
H         36.20940       52.71382       61.82110
H         38.18072       53.00166       60.81177
H         36.62524       53.73153       58.26206
H         39.33432       52.95406       58.73165
H         37.08740       51.38244       57.61834
H         37.83299       51.06215       59.22997
H         36.07198       51.44081       59.10503
N         39.01431       55.36870       61.01927
C         39.51594       56.71666       61.26389
C         39.86483       56.84881       62.73660
O         39.33023       57.72917       63.39753
C         40.73853       57.00224       60.36833
C         40.33479       57.02445       58.88291
C         41.50830       57.40319       57.97127
C         41.04890       57.49249       56.50720
N         42.15142       57.88341       55.62948
H         39.63392       54.58288       61.26163
H         38.74681       57.48422       61.02009
H         41.53681       56.24693       60.53869
H         41.14080       58.00539       60.63293
H         39.52829       57.77889       58.74751
H         39.94324       56.02855       58.58175
H         42.31548       56.64432       58.06591
H         41.90839       58.39318       58.28189
H         40.23461       58.24687       56.42124
H         40.64819       56.50757       56.17896
H         42.91537       57.17069       55.67104
H         41.79950       57.94671       54.64661
H         42.52331       58.81886       55.91382
N         40.71345       55.96253       63.33135
C         40.98794       55.95681       64.76251
C         42.00877       57.01445       65.11542
O         43.10489       56.98602       64.57184
C         41.50617       54.57018       65.21124
C         40.47957       53.44337       64.98463
C         39.21495       53.67623       65.76085
O         39.25756       53.77905       67.10317
O         38.14721       53.78098       65.17826
H         41.11213       55.20415       62.75889
H         40.04424       56.13796       65.32311
H         41.75079       54.60577       66.29638
H         42.43909       54.32071       64.65974
H         40.91965       52.48017       65.31886
H         40.24491       53.35239       63.90220
N         41.72563       57.95712       66.05753
C         42.67523       58.96199       66.49227
H         43.64631       58.88906       65.95871
H         42.25111       59.97194       66.31804
H         42.86793       58.83501       67.57884
H         40.80115       57.95313       66.51419
Ca        36.31528       53.78048       67.53103
O         38.01676       53.38584       70.04622
H         37.92477       52.55556       70.57761
H         38.41153       54.04225       70.67331
O         37.14092       56.38182       68.71213
H         36.33416       56.92187       68.51722
H         37.86210       56.81054       68.18657
O         35.24234       55.67691       65.65751
H         35.32383       56.65509       65.77996
H         34.39491       55.43967       66.11153
O         34.77510       54.49264       69.92106
H         34.92583       53.99635       70.76417
H         33.90444       54.94603       70.04750

Ca 1.0



