%chk=apoCaM-CA-Ng.loop4.water4.frame993.chk
%nprocshared=20
%mem=10GB
%nosave
#b3lyp/svp scf=(tight,noincore,xqc) Test 
#IOP(5/87=12) Density=Current Pop=(MK,readradii) iop(6/33=2) iop(6/42=6)

apoCaM-CA-Ng.loop4.water4.frame993 

   -3  1 
C         55.78321      112.89669       72.38345
C         55.12383      114.23693       72.23837
O         55.65317      115.07350       71.52167
H         56.79958      113.02903       72.81095
H         55.20371      112.22809       73.05419
H         55.86699      112.41313       71.38769
N         53.95714      114.51240       72.89677
C         53.25219      115.79767       72.85620
C         52.68029      116.12665       71.47942
O         52.10600      117.19677       71.33529
C         54.15779      116.94145       73.35976
C         54.88605      116.54595       74.61128
O         54.29696      116.30493       75.65235
O         56.20913      116.35021       74.49594
H         53.55143      113.77949       73.49868
H         52.39102      115.73133       73.55840
H         53.57943      117.87689       73.51885
H         54.91960      117.15960       72.58124
N         52.76090      115.24908       70.43320
C         52.17528      115.49514       69.11465
C         50.67441      115.65811       69.33401
O         50.07151      114.70125       69.80118
C         52.49976      114.27827       68.17468
C         54.03625      114.13592       67.96200
C         51.78967      114.37643       66.81115
C         54.45516      112.78683       67.37776
H         53.20481      114.33743       70.59219
H         52.62990      116.40754       68.67891
H         52.12431      113.36630       68.69104
H         54.58450      114.22251       68.92089
H         54.39542      114.94816       67.30306
H         51.95732      113.46105       66.20958
H         50.69252      114.47685       66.93938
H         52.17298      115.23849       66.22949
H         55.56157      112.76070       67.27711
H         54.15013      111.96962       68.06610
H         54.01742      112.61069       66.37662
N         49.98056      116.81971       69.13207
C         50.49363      118.06780       68.56830
C         49.59592      119.22504       68.99580
O         48.39930      119.18077       68.74355
C         50.56944      117.93349       67.03209
C         50.82513      119.23252       66.32352
O         49.97116      120.09944       66.31949
O         51.95654      119.42779       65.63359
H         48.98900      116.80783       69.42082
H         51.50486      118.29605       68.96582
H         49.61692      117.52423       66.63157
H         51.38103      117.22528       66.78997
N         50.13052      120.30963       69.63608
C         49.34097      121.43437       70.11164
C         49.72441      122.70944       69.40430
O         50.14922      123.65104       70.05732
H         51.14800      120.34572       69.80364
H         49.50385      121.54109       71.20613
H         48.25554      121.27243       69.94669
N         49.55141      122.81319       68.05732
C         49.80656      124.02274       67.28045
C         49.35858      123.81668       65.84050
O         48.45323      124.51903       65.41130
C         51.27339      124.52991       67.38548
C         52.34403      123.51629       67.08006
O         53.18831      123.75094       66.23135
O         52.42856      122.37974       67.79662
H         49.16278      121.99530       67.56930
H         49.16915      124.83659       67.69483
H         51.46082      124.87886       68.41946
H         51.39070      125.42091       66.72718
N         49.93983      122.88133       65.03597
C         49.55742      122.67943       63.64570
C         50.63891      123.14801       62.69904
O         50.41279      123.10829       61.49843
H         50.71222      122.31034       65.40483
H         48.64537      123.26242       63.39657
H         49.32383      121.60619       63.47483
N         51.82747      123.64053       63.16201
C         52.85946      124.24156       62.33284
C         53.48755      123.26066       61.35030
O         54.26884      123.69397       60.51613
C         52.33353      125.55375       61.70335
C         51.79127      126.48142       62.81905
C         51.39655      127.86052       62.36439
N         50.89779      128.73757       63.26766
O         51.52904      128.19954       61.19789
H         52.01297      123.65428       64.16686
H         53.69659      124.55833       62.99578
H         51.53444      125.35890       60.95689
H         53.18017      126.05847       61.18864
H         52.56964      126.60411       63.60351
H         50.89739      126.01050       63.28386
H         50.77899      128.46300       64.25500
H         50.62886      129.69120       62.98502
N         53.27908      121.91301       61.46413
C         53.93863      120.91250       60.62607
C         54.90315      120.04261       61.43209
O         55.60611      119.24765       60.82033
C         52.88360      120.01326       59.91517
C         52.00987      119.21785       60.90981
C         51.98804      120.83879       58.98425
H         52.66494      121.56752       62.21050
H         54.55454      121.41755       59.85018
H         53.42800      119.27621       59.28372
H         51.32060      118.54378       60.35939
H         52.63767      118.58685       61.57367
H         51.38849      119.88678       61.54087
H         51.27709      120.17264       58.44994
H         51.40340      121.58813       59.55648
H         52.60608      121.36618       58.22793
N         54.95654      120.08757       62.79511
C         55.78023      119.20036       63.60800
C         56.56384      119.99426       64.64424
O         56.26306      121.15799       64.88219
C         54.80883      118.22197       64.30571
C         55.41160      117.34224       65.36831
N         55.02758      117.48529       66.66090
O         56.25067      116.50642       65.06953
H         54.32383      120.71705       63.30846
H         56.49757      118.62952       62.97765
H         54.29900      117.59152       63.54475
H         54.04075      118.84410       64.78788
H         54.31856      118.18408       66.93124
H         55.44998      116.91262       67.40413
N         57.58138      119.39690       65.32477
C         58.26710      120.01364       66.45205
C         59.46442      119.18135       66.85490
O         59.30129      118.00066       67.13141
C         57.29747      120.13344       67.65624
C         57.97435      120.66069       68.90349
C         58.62549      121.90506       68.89215
C         57.96249      119.90587       70.09099
C         59.26445      122.37964       70.04095
C         58.58952      120.39039       71.24216
C         59.24924      121.62662       71.21891
O         59.86917      122.10031       72.31858
H         57.86780      118.44923       65.03392
H         58.62312      121.02429       66.15779
H         56.86551      119.13056       67.86942
H         56.45728      120.80935       67.39752
H         58.64833      122.50445       67.99199
H         57.46623      118.94364       70.13159
H         59.77152      123.33547       70.01447
H         58.56411      119.80288       72.15063
H         59.88537      121.60946       73.15260
N         60.69360      119.76208       66.96623
C         61.87115      119.05148       67.43330
C         62.28284      119.63292       68.77579
O         62.82388      120.73060       68.78292
C         62.99931      119.17392       66.38440
C         64.32128      118.52952       66.83348
C         65.37535      118.68349       65.77412
O         65.22170      118.17749       64.67395
O         66.49894      119.37966       66.03495
H         60.78929      120.77048       66.76756
H         61.64347      117.98333       67.53973
H         63.18985      120.25130       66.17687
H         62.65405      118.69871       65.43986
H         64.17130      117.45093       67.04990
H         64.68202      119.02804       67.75930
N         62.03854      119.02427       69.97599
C         61.23579      117.81823       70.18334
C         61.86182      116.57271       69.58757
O         62.99809      116.25561       69.90888
C         60.98147      117.61818       71.69318
C         59.97300      116.49158       71.95903
C         59.49092      116.50820       73.37753
O         58.90164      117.49416       73.79289
O         59.57133      115.41687       74.16332
H         62.36508      119.52625       70.81767
H         60.23809      117.99925       69.72456
H         60.55038      118.56678       72.07494
H         61.92688      117.42792       72.24622
H         60.40880      115.50348       71.69933
H         59.07323      116.65321       71.32376
N         61.13778      115.80256       68.72375
C         61.63534      114.59691       68.09803
H         62.68172      114.37143       68.38768
H         60.99071      113.74107       68.39011
H         61.58973      114.71547       66.99472
H         60.17014      116.07421       68.49731
Ca        57.92207      115.51881       75.68884
O         55.95685      115.06559       78.23074
H         55.75113      114.91688       77.27480
H         55.07201      115.11541       78.67089
O         57.56905      118.13079       77.23638
H         58.01672      118.37607       78.08472
H         57.94022      118.75980       76.56782
O         60.76463      116.64414       76.76155
H         60.89561      116.92618       77.70143
H         61.66901      116.38828       76.45043
O         58.77629      115.59268       78.93146
H         58.19527      115.91764       79.66434
H         59.53585      115.15488       79.39096

Ca 1.0



