%chk=apoCaM-CA-Ng.loop3.water5.frame121.chk
%nprocshared=20
%mem=10GB
%nosave
#b3lyp/svp scf=(tight,noincore,xqc) Test 
#IOP(5/87=12) Density=Current Pop=(MK,readradii) iop(6/33=2) iop(6/42=6)

apoCaM-CA-Ng.loop3.water5.frame121 

   0  1 
C         45.47133       86.23761        3.50447
C         44.95899       87.03509        4.67059
O         43.82482       87.48597        4.62661
H         46.50636       85.87523        3.68373
H         44.81800       85.35656        3.33519
H         45.47640       86.87012        2.59226
N         45.75891       87.26085        5.75013
C         45.37467       88.02354        6.93296
C         44.98930       89.45570        6.57656
O         43.97650       89.93500        7.06866
C         44.25332       87.30741        7.73441
C         44.65303       85.94307        8.22134
O         44.92965       85.05633        7.42983
O         44.67490       85.68428        9.54325
H         46.71747       86.87987        5.73742
H         46.26895       88.09039        7.59099
H         43.33293       87.21173        7.11824
H         44.00483       87.92023        8.62724
N         45.73945       90.20027        5.70805
C         45.38282       91.57303        5.35145
C         44.61622       91.58670        4.04474
O         45.07041       92.14478        3.05430
C         46.60960       92.49910        5.30087
C         47.45504       92.45725        6.57695
C         48.32332       93.71637        6.65776
C         49.27603       93.67598        7.85405
N         49.92615       94.97389        8.03281
H         46.54420       89.76009        5.23643
H         44.70291       92.00351        6.12075
H         46.20300       93.52484        5.15236
H         47.27166       92.26162        4.43761
H         48.07059       91.52941        6.56992
H         46.80152       92.44467        7.47581
H         47.63476       94.58409        6.76911
H         48.91689       93.85257        5.72704
H         50.04153       92.88700        7.67890
H         48.71644       93.42590        8.78214
H         50.41763       95.26377        7.15644
H         49.20729       95.69224        8.28408
H         50.61941       94.90808        8.81188
N         43.41234       90.96157        3.98810
C         42.62085       90.84065        2.77094
C         42.11719       92.20794        2.28966
O         42.25241       93.19344        3.00253
C         41.48486       89.83956        3.07369
C         40.67226       89.36355        1.90646
O         39.81382       90.20403        1.31382
O         40.62175       88.17104        1.64935
H         43.06870       90.50815        4.84750
H         43.27712       90.39202        1.99439
H         40.81730       90.28137        3.84073
H         41.94461       88.93712        3.53262
N         41.55122       92.33512        1.05676
C         41.05633       93.58065        0.49093
C         39.93849       94.20849        1.29472
O         40.07403       95.36684        1.66270
H         41.51086       91.50760        0.44900
H         40.66843       93.37473       -0.52908
H         41.89804       94.29974        0.39102
N         38.80623       93.51191        1.60879
C         37.70506       94.09149        2.38083
C         37.65285       93.51648        3.78985
O         36.59481       93.51501        4.40522
C         36.35115       93.97603        1.63809
C         35.89199       92.55391        1.42942
N         34.79951       92.08122        2.07138
O         36.50118       91.82462        0.66311
H         38.75031       92.52335        1.33212
H         37.87180       95.18056        2.52522
H         36.40457       94.48264        0.65084
H         35.58940       94.51861        2.24002
H         34.26348       92.67092        2.72443
H         34.49783       91.11118        1.92310
N         38.79508       93.09706        4.40101
C         38.85870       92.64604        5.77730
C         37.97416       91.45550        6.03857
O         37.18494       91.50190        6.97116
H         39.68441       93.12201        3.88349
H         38.58598       93.47988        6.46086
H         39.90873       92.35458        6.00012
N         38.07113       90.34115        5.26509
C         37.33938       89.11115        5.53126
C         36.36714       88.78790        4.36949
O         37.09560       88.15660        3.36612
C         38.38352       87.98603        5.76034
C         39.06834       88.16950        7.08581
C         40.39423       88.62605        7.18608
C         38.34948       87.87559        8.25285
C         40.97718       88.79671        8.44821
C         38.93962       88.02841        9.50531
C         40.25591       88.49433        9.60881
O         40.83418       88.65437       10.81571
H         38.71940       90.35640        4.46787
H         36.71366       89.22805        6.44073
H         39.12382       88.01127        4.92595
H         37.92009       86.97593        5.75071
H         40.96843       88.86676        6.29867
H         37.33059       87.51460        8.18619
H         41.98855       89.16525        8.53064
H         38.36952       87.78601       10.39230
H         40.36552       88.45111       11.63816
N         35.31837       87.88653        4.83935
C         34.34202       87.52688        3.79900
C         33.35826       88.66649        3.53587
O         33.27433       89.08563        2.39260
C         33.66930       86.18716        4.19227
C         34.72758       85.10300        4.56087
C         32.75268       85.65883        3.07313
C         35.68919       84.71352        3.42691
H         34.83384       88.28184        5.67700
H         34.87342       87.32270        2.84331
H         33.05303       86.36283        5.10202
H         34.20120       84.18641        4.90109
H         35.33881       85.45796        5.41886
H         32.27059       84.71163        3.39376
H         31.95660       86.37059        2.82138
H         33.31601       85.48408        2.13497
H         36.40607       83.95259        3.79807
H         35.14448       84.27025        2.56944
H         36.27991       85.58237        3.07376
N         32.59856       89.24075        4.52219
C         31.69364       90.36139        4.24121
C         30.51684       89.95391        3.35765
O         29.83524       90.83002        2.84713
C         31.17424       91.00693        5.53683
O         32.24028       91.41423        6.35304
H         32.69815       88.90867        5.49278
H         32.28367       91.13599        3.70000
H         30.55851       90.27448        6.10045
H         30.52379       91.88313        5.31042
H         32.69650       92.15879        5.88004
N         30.24656       88.63845        3.11248
C         29.25089       88.13734        2.17290
C         29.52307       88.68959        0.77978
O         28.62652       89.24173        0.15389
C         27.82954       88.41647        2.67876
H         30.80225       87.93036        3.59750
H         29.36626       87.03068        2.12667
H         27.69807       87.97240        3.68917
H         27.62810       89.50554        2.74139
H         27.08557       87.95216        1.99713
N         30.78555       88.63241        0.26846
C         31.18747       89.25900       -0.98536
C         32.07529       88.33665       -1.79184
O         33.02623       87.79733       -1.24512
C         31.95779       90.54278       -0.68334
H         31.52517       88.21661        0.85439
H         30.30321       89.56774       -1.58590
H         32.86419       90.34046       -0.08079
H         32.25839       91.02951       -1.63702
H         31.30629       91.24626       -0.12346
N         31.84353       88.13841       -3.11819
C         32.66369       87.29713       -3.98413
C         32.66531       85.87669       -3.44686
O         33.71832       85.28638       -3.25324
C         34.07797       87.92352       -4.17468
C         35.00692       87.24791       -5.20963
C         34.44512       87.22840       -6.60676
O         33.36307       86.48262       -6.89995
O         34.99960       87.85232       -7.49746
H         31.03329       88.60907       -3.55014
H         32.16211       87.29069       -4.97177
H         34.61410       87.93860       -3.20133
H         33.94621       88.98028       -4.49528
H         35.26596       86.21162       -4.91536
H         35.95731       87.82842       -5.21904
N         31.47749       85.28905       -3.13196
C         31.36463       83.95900       -2.57338
H         30.68942       83.35291       -3.21118
H         32.34499       83.44319       -2.50504
H         30.93207       84.02930       -1.55301
H         30.60464       85.82314       -3.25929
Ca        37.81119       89.82553        2.10574
O         36.88551       89.51758       -2.27566
H         36.41497       90.26144       -2.72871
H         37.62318       89.27696       -2.89057
O         39.57660       87.73209       -1.30083
H         39.57129       86.92596       -1.87555
H         40.24616       88.32938       -1.71909
O         35.59597       88.55084        0.18263
H         34.76734       89.08074        0.27275
H         35.31288       87.73330       -0.29639
O         39.13272       91.02081       -1.23190
H         38.96414       91.92479       -1.59609
H         40.08906       90.84770       -1.42005
O         37.28193       86.08637        0.19957
H         37.88161       85.39050        0.56651
H         36.45890       85.59730       -0.05413

Ca 1.0



