%chk=apoCaM-CA-Ng.loop4.water4.frame363.chk
%nprocshared=20
%mem=10GB
%nosave
#b3lyp/svp scf=(tight,noincore,xqc) Test 
#IOP(5/87=12) Density=Current Pop=(MK,readradii) iop(6/33=2) iop(6/42=6)

apoCaM-CA-Ng.loop4.water4.frame363 

   -3  1 
C         69.77466       85.64411       53.93479
C         70.48722       85.31924       55.21377
O         70.67635       86.22183       56.01046
H         68.77052       86.05890       54.16314
H         70.35927       86.40464       53.37391
H         69.65613       84.74667       53.29332
N         70.90282       84.04704       55.48362
C         71.64047       83.64639       56.68100
C         70.83580       83.94574       57.94222
O         71.26323       84.72177       58.77604
C         73.12132       84.13756       56.63142
C         73.33019       85.62358       56.69311
O         73.12936       86.27867       57.84742
O         73.68432       86.24018       55.70098
H         70.68216       83.30657       54.80030
H         71.74803       82.53820       56.65043
H         73.53980       83.76371       55.67034
H         73.71058       83.66794       57.44849
N         69.65029       83.29634       58.13436
C         68.75568       83.38605       59.29461
C         69.46661       82.93672       60.57466
O         69.26213       81.79447       60.96217
C         68.02148       84.75374       59.41687
C         66.91833       84.73331       60.51597
C         67.42426       85.19702       58.06870
C         65.72874       83.79826       60.25872
H         69.36198       82.63331       57.39688
H         67.96786       82.62962       59.08382
H         68.76360       85.52988       59.69900
H         66.51571       85.76213       60.62903
H         67.36166       84.43304       61.48300
H         68.22399       85.32225       57.31020
H         66.70004       84.45142       57.68049
H         66.91270       86.17700       58.18062
H         65.01493       83.87839       61.10592
H         65.18328       84.08296       59.33643
H         66.04680       82.73877       60.19099
N         70.33268       83.75031       61.26352
C         71.19071       83.26641       62.34731
C         70.96310       83.85669       63.74853
O         71.47823       83.22771       64.66348
C         72.67345       83.51353       61.97681
C         73.14005       82.85512       60.70449
O         72.40353       82.13667       60.04816
O         74.40528       83.05687       60.29024
H         70.45369       84.71942       60.95593
H         71.04193       82.17028       62.46722
H         73.33236       83.14609       62.79325
H         72.82712       84.61067       61.87737
N         70.31238       85.01205       64.08535
C         69.68663       85.95719       63.18410
C         69.12358       87.13843       63.96416
O         68.31040       86.88441       64.84157
H         70.29896       85.24528       65.09205
H         68.85275       85.46102       62.66449
H         70.42057       86.27787       62.44261
N         69.43947       88.45538       63.73865
C         70.31634       88.99419       62.69931
C         69.79934       88.56588       61.33389
O         70.50702       87.87621       60.61465
C         71.80287       88.65901       62.96710
C         72.24659       89.18545       64.30385
O         72.72502       88.34013       65.23642
O         72.18229       90.37996       64.54898
H         68.96720       89.15505       64.33313
H         70.27315       90.10519       62.73072
H         72.42450       89.14146       62.18353
H         72.00621       87.57398       62.93551
N         68.53916       88.87685       60.91051
C         67.62577       89.77232       61.60442
C         66.54869       89.01902       62.33156
O         66.55369       87.79595       62.33470
H         68.19978       88.45472       60.03411
H         67.18438       90.47138       60.86158
H         68.14245       90.39721       62.35571
N         65.58175       89.71402       62.99237
C         64.52195       89.07205       63.75781
C         63.20382       89.06720       63.00218
O         62.26488       88.45727       63.49576
C         64.48410       89.60798       65.21196
C         64.35569       91.12807       65.44424
C         63.03551       91.72250       65.02999
N         62.20260       92.26182       65.95125
O         62.72267       91.74737       63.85294
H         65.57949       90.74226       62.91449
H         64.74425       87.98645       63.86130
H         65.45640       89.31849       65.67033
H         63.68791       89.08017       65.78093
H         65.18244       91.67571       64.94614
H         64.48504       91.28809       66.53713
H         62.44557       92.26378       66.95243
H         61.30684       92.68155       65.66393
N         63.09533       89.60170       61.74643
C         61.96221       89.33813       60.86320
C         61.23566       90.59218       60.40181
O         60.26362       90.43909       59.67493
C         62.44660       88.50911       59.63247
C         63.03121       87.15775       60.07387
C         63.47487       89.25967       58.76149
H         63.88602       90.12512       61.34900
H         61.19786       88.72554       61.39077
H         61.56125       88.29084       58.99493
H         63.31319       86.55259       59.18594
H         63.93706       87.29791       60.70199
H         62.27737       86.58638       60.65605
H         64.42008       89.45319       59.30994
H         63.72805       88.65111       57.86794
H         63.06162       90.22744       58.40800
N         61.61676       91.84970       60.77154
C         60.90671       93.04672       60.32605
C         61.80565       94.00823       59.56022
O         61.28116       95.00521       59.08015
C         60.32757       93.78342       61.55372
C         59.40318       92.91797       62.37265
N         58.25948       92.42541       61.84461
O         59.68627       92.66925       63.53461
H         62.41546       91.97218       61.40607
H         60.07187       92.77601       59.64470
H         59.76545       94.68647       61.22996
H         61.17169       94.11830       62.19671
H         57.99464       92.63160       60.87113
H         57.63203       91.84027       62.41626
N         63.16026       93.84040       59.46910
C         64.04030       94.87996       58.94811
C         65.12534       94.31714       58.05733
O         65.86262       93.46865       58.53522
C         64.76138       95.55362       60.13778
C         63.80653       96.13078       61.14991
C         63.78828       95.62633       62.46114
C         62.93288       97.17311       60.80124
C         62.90898       96.15405       63.40766
C         62.05289       97.70004       61.75079
C         62.03748       97.19397       63.05537
O         61.18484       97.71358       63.96046
H         63.61052       93.03132       59.91845
H         63.46891       95.66657       58.40894
H         65.42612       96.36484       59.76656
H         65.40644       94.79723       60.63943
H         64.45220       94.82137       62.75239
H         62.93375       97.57818       59.79703
H         62.90689       95.75241       64.41297
H         61.38359       98.50379       61.47195
H         61.14757       97.39252       64.87276
N         65.38403       94.87767       56.83392
C         66.63370       94.71451       56.08105
C         66.75517       93.42922       55.26500
O         67.04358       93.53050       54.07981
C         67.85062       94.95431       57.00908
C         69.16057       95.18430       56.24820
C         70.27569       95.47249       57.21436
O         70.19776       96.53449       58.04065
O         71.25706       94.74843       57.25538
H         64.75744       95.63259       56.51451
H         66.66040       95.55032       55.34337
H         67.99206       94.10288       57.70635
H         67.64451       95.87148       57.60592
H         69.04978       96.05737       55.56925
H         69.40829       94.28761       55.64071
N         66.59408       92.19274       55.81591
C         66.84869       90.94357       55.09854
C         65.95414       90.75409       53.87706
O         66.20811       89.82523       53.12109
C         66.63939       89.71951       56.03006
C         67.43000       89.72303       57.35277
C         68.91297       89.57160       57.19804
O         69.58280       90.39704       56.59965
O         69.50213       88.53375       57.81348
H         66.31767       92.13355       56.79181
H         67.90414       90.96962       54.75005
H         66.87252       88.77863       55.48278
H         65.56119       89.69370       56.30291
H         67.06252       88.85954       57.94882
H         67.22602       90.62473       57.95948
N         64.88231       91.55735       53.61974
C         64.04458       91.36206       52.45692
H         63.22693       92.11362       52.44907
H         64.64739       91.48177       51.53161
H         63.59467       90.34667       52.47900
H         64.62897       92.31965       54.26274
Ca        71.67311       87.97584       57.92749
O         71.66899       90.73189       59.42528
H         71.46743       90.88919       60.38154
H         70.98194       91.25306       58.93913
O         74.61144       89.32543       57.77385
H         74.89033       88.73965       57.02590
H         75.13456       89.00120       58.54903
O         73.70438       87.56809       60.45197
H         73.81476       86.63773       60.77051
H         74.37724       88.08700       60.96006
O         72.64172       89.34785       55.33419
H         72.10313       90.15188       55.54262
H         72.06687       88.81065       54.73329

Ca 1.0



