%chk=apoCaM-CA-Ng.loop4.water3.frame389.chk
%nprocshared=20
%mem=10GB
%nosave
#b3lyp/svp scf=(tight,noincore,xqc) Test 
#IOP(5/87=12) Density=Current Pop=(MK,readradii) iop(6/33=2) iop(6/42=6)

apoCaM-CA-Ng.loop4.water3.frame389 

   -3  1 
C         29.61698       82.12738       34.17211
C         30.57174       83.31486       34.19184
O         30.50096       83.95324       32.94594
H         28.60619       82.48562       33.87671
H         29.95668       81.37088       33.43418
H         29.54683       81.67420       35.18141
N         31.96655       82.93814       34.50204
C         32.61439       83.80825       35.51391
C         32.01064       85.22698       35.63736
O         32.17638       86.03964       34.74718
C         34.17482       83.78867       35.37225
C         34.82593       83.39227       34.04520
O         34.58951       84.01987       32.87698
O         35.62817       82.47112       34.04096
H         32.02298       81.95204       34.85509
H         32.41170       83.35656       36.51108
H         34.55176       83.03366       36.09844
H         34.59187       84.75851       35.71424
N         31.23458       85.53554       36.72936
C         30.51067       86.78581       37.00904
C         31.44054       87.90953       37.46142
O         31.31175       88.33049       38.60378
C         29.52730       87.20845       35.87236
C         28.65931       88.44540       36.24825
C         28.60865       86.04415       35.46548
C         27.66854       88.23504       37.40206
H         31.08160       84.78832       37.42347
H         29.87368       86.56110       37.89356
H         30.12396       87.49417       34.98000
H         28.07084       88.74518       35.35329
H         29.31454       89.29803       36.51489
H         27.91636       86.35723       34.65645
H         29.20190       85.20431       35.08476
H         28.01942       85.66611       36.32598
H         27.10103       89.17397       37.57078
H         26.92866       87.44411       37.16208
H         28.19033       87.97887       38.34551
N         32.40656       88.43779       36.65829
C         33.32826       89.46647       37.12152
C         32.64145       90.81927       37.29832
O         32.76896       91.36674       38.38445
C         34.58541       89.57235       36.22107
C         35.40701       88.30670       36.19920
O         36.44485       88.27833       35.55806
O         35.02774       87.21024       36.88572
H         32.53552       88.07554       35.70975
H         33.73960       89.15837       38.11189
H         35.23627       90.37982       36.62258
H         34.33885       89.82423       35.17814
N         31.93445       91.47427       36.32522
C         31.60721       90.92948       35.01250
C         30.95752       91.95818       34.09225
O         30.31418       92.86386       34.60376
H         31.60550       92.42361       36.55939
H         30.93305       90.05831       35.11725
H         32.50941       90.57006       34.55373
N         31.00386       91.89978       32.72012
C         31.66509       90.89226       31.88928
C         31.10392       89.51983       32.23323
O         31.83287       88.69132       32.76023
C         33.21584       91.01856       31.93474
C         33.91895       90.18408       30.89326
O         33.29658       89.47655       30.11724
O         35.26147       90.23380       30.80696
H         30.48573       92.63103       32.20738
H         31.43199       91.12047       30.82793
H         33.65699       90.74822       32.90309
H         33.48223       92.07819       31.73416
N         29.78966       89.20618       32.03254
C         28.84820       90.00765       31.26450
C         27.94344       90.83279       32.13082
O         28.09247       90.84080       33.34500
H         29.44241       88.30404       32.38769
H         28.24230       89.32268       30.63314
H         29.35849       90.69275       30.56297
N         26.96415       91.57174       31.53786
C         26.05650       92.44039       32.27360
C         24.65795       91.84791       32.36024
O         23.85750       92.40303       33.10068
C         26.13603       93.89634       31.74594
C         25.83126       94.09793       30.24926
C         24.40628       93.78989       29.89155
N         23.39297       94.52539       30.40357
O         24.16425       92.88030       29.11497
H         26.84572       91.48684       30.51736
H         26.38195       92.49252       33.33653
H         27.18141       94.24171       31.90603
H         25.48079       94.55289       32.35851
H         26.52454       93.48153       29.64040
H         26.02894       95.15758       29.97816
H         23.58200       95.31006       31.04386
H         22.41725       94.32220       30.14563
N         24.32677       90.66547       31.74765
C         23.13178       89.90340       32.10922
C         22.18644       89.70939       30.93029
O         21.69760       88.60811       30.71586
C         23.57575       88.54746       32.75754
C         24.50164       88.78986       33.96409
C         24.30467       87.60349       31.77195
H         24.98640       90.22750       31.09267
H         22.54709       90.46424       32.87064
H         22.66542       88.02333       33.12287
H         24.76773       87.82466       34.44618
H         25.44981       89.27755       33.64599
H         24.00484       89.43438       34.71757
H         25.24853       88.04542       31.39397
H         24.55396       86.65512       32.28853
H         23.68238       87.33362       30.89745
N         21.85963       90.75405       30.12254
C         20.95006       90.61051       28.98426
C         21.46219       89.64651       27.91229
O         20.70179       89.39383       26.98587
C         20.71801       91.98126       28.30153
C         20.04722       93.05727       29.12869
N         19.57736       92.84630       30.38277
O         19.91551       94.16321       28.62612
H         22.25781       91.67947       30.33658
H         19.97854       90.21262       29.35300
H         20.08453       91.84390       27.39767
H         21.70721       92.36400       27.96785
H         19.64152       91.93269       30.84899
H         19.12214       93.61553       30.89606
N         22.71199       89.08867       27.92772
C         23.20886       88.26324       26.82265
C         24.56183       87.61153       27.09936
O         25.19231       87.91519       28.09919
C         23.29786       89.12581       25.52804
C         23.88333       90.51307       25.76216
C         23.10886       91.64591       25.44755
C         25.17058       90.70776       26.29832
C         23.60684       92.93388       25.66038
C         25.66582       91.99726       26.51356
C         24.88838       93.11379       26.19531
O         25.37827       94.35045       26.41549
H         23.34517       89.29053       28.71216
H         22.51262       87.40854       26.66890
H         22.27219       89.24558       25.12303
H         23.86438       88.59994       24.73285
H         22.11280       91.53623       25.03729
H         25.79829       89.87700       26.56668
H         22.99271       93.79030       25.41254
H         26.65460       92.12832       26.93554
H         24.86728       95.14850       26.21856
N         25.05864       86.71270       26.18912
C         26.36325       86.04447       26.19639
C         26.52622       84.95025       27.24481
O         26.74953       83.81338       26.84777
C         27.53783       87.04226       26.23846
C         27.53867       87.96818       25.01178
C         28.70499       88.91218       25.05076
O         28.49712       90.24220       25.08309
O         29.84690       88.48005       25.04050
H         24.47488       86.51376       25.36182
H         26.45378       85.51193       25.22005
H         28.48871       86.46319       26.22952
H         27.51329       87.63870       27.17468
H         26.59648       88.54783       24.97268
H         27.60006       87.36394       24.08115
N         26.51295       85.20152       28.58333
C         26.87295       84.19171       29.57656
C         25.91882       83.00175       29.61956
O         26.22774       82.04777       30.32180
C         26.98723       84.80535       30.99672
C         27.85167       86.08207       31.11986
C         29.25749       85.93692       30.60745
O         29.46947       85.70476       29.42864
O         30.29684       86.14492       31.43212
H         26.34114       86.15367       28.89918
H         27.87435       83.80003       29.29436
H         27.39928       84.03192       31.68214
H         25.96886       85.06396       31.35453
H         27.87638       86.36758       32.19277
H         27.38370       86.93094       30.58534
N         24.75138       82.96760       28.91495
C         23.87532       81.81605       28.94864
H         22.98517       81.99656       28.30949
H         24.41138       80.92180       28.56388
H         23.53588       81.62493       29.98873
H         24.45968       83.76941       28.33958
Ca        32.56018       84.78396       32.51089
O         34.87184       87.18480       33.00077
H         35.18092       87.89298       32.38247
H         35.70604       86.79276       33.36241
O         32.21918       83.36248       29.97805
H         31.33152       83.57430       29.59497
H         32.02691       82.72361       30.70999
O         33.26602       86.50064       29.55418
H         32.47021       87.05819       29.36408
H         33.36536       85.93181       28.75006

Ca 1.0



