%chk=apoCaM-CA-Ng.loop2.water2.frame852.chk
%nprocshared=20
%mem=10GB
%nosave
#b3lyp/svp scf=(tight,noincore,xqc) Test 
#IOP(5/87=12) Density=Current Pop=(MK,readradii) iop(6/33=2) iop(6/42=6)

apoCaM-CA-Ng.loop2.water2.frame852 

   -2  1 
C         74.73283       49.34120       -8.38482
C         73.91707       48.62116       -9.41575
O         74.25218       47.48885       -9.73396
H         75.77859       49.44149       -8.74390
H         74.32650       50.35285       -8.17856
H         74.72887       48.75695       -7.44035
N         72.82412       49.21258       -9.98067
C         71.98842       48.54824      -10.97076
C         70.58431       48.38325      -10.41640
O         69.62201       48.79647      -11.04967
C         72.03981       49.34438      -12.29387
C         71.26773       48.67804      -13.40136
O         70.34189       49.26206      -13.94219
O         71.59808       47.43683      -13.80594
H         72.56570       50.16908       -9.69274
H         72.37195       47.52472      -11.17553
H         73.09762       49.43071      -12.62238
H         71.64706       50.37151      -12.12127
N         70.40061       47.76574       -9.21463
C         69.08268       47.45740       -8.67220
C         68.78646       48.28826       -7.43140
O         69.68645       48.96586       -6.95371
C         69.05824       45.95356       -8.35963
H         71.23016       47.48234       -8.66897
H         68.30654       47.70076       -9.42638
H         69.82537       45.71410       -7.59018
H         68.08397       45.60187       -7.98511
H         69.29103       45.37574       -9.27822
N         67.55454       48.33251       -6.83511
C         66.34548       47.66088       -7.31327
C         65.23475       48.66162       -7.58942
O         65.08470       49.62030       -6.84781
C         65.87914       46.55974       -6.33884
C         65.52228       47.03424       -4.96115
O         66.44961       47.60199       -4.16876
O         64.39988       46.84378       -4.52857
H         67.46620       48.91437       -5.98768
H         66.53260       47.12985       -8.26333
H         66.67906       45.80017       -6.22979
H         64.99642       46.05335       -6.79236
N         64.40732       48.47710       -8.65699
C         63.31219       49.36259       -9.01987
C         62.03139       48.56438       -9.15234
O         61.59844       48.36736      -10.27858
H         64.56477       47.66011       -9.26709
H         63.56187       49.78411      -10.01815
H         63.18869       50.22000       -8.32745
N         61.36027       48.02471       -8.09318
C         61.65840       48.28850       -6.69137
C         61.25264       49.72215       -6.38600
O         60.11409       50.07990       -6.65756
C         60.87078       47.29540       -5.79838
C         61.24012       47.33052       -4.33191
N         60.63419       46.49091       -3.46269
O         62.10036       48.09081       -3.92224
H         60.54817       47.42292       -8.30667
H         62.73490       48.09826       -6.49882
H         61.09369       46.26462       -6.14973
H         59.77907       47.47349       -5.90779
H         59.91480       45.82854       -3.78533
H         60.89006       46.49870       -2.46442
N         62.12442       50.59546       -5.81621
C         61.80969       51.99390       -5.56711
C         61.61796       52.29201       -4.09897
O         61.47441       53.46021       -3.76730
H         63.05000       50.25441       -5.52662
H         60.87874       52.30922       -6.08563
H         62.64028       52.60868       -5.97676
N         61.54916       51.29605       -3.16756
C         61.33152       51.53028       -1.74762
C         62.50070       50.93889       -0.92276
O         63.68534       51.01277       -1.65931
C         59.98759       50.89175       -1.31481
C         58.80405       51.52798       -2.04809
O         59.98425       49.51387       -1.59062
H         61.62973       50.32230       -3.46630
H         61.29018       52.62462       -1.54851
H         59.81425       51.05954       -0.22728
H         60.51178       49.07436       -0.87702
H         58.75706       52.61648       -1.83468
H         58.88962       51.37685       -3.14573
H         57.85612       51.05912       -1.70759
N         62.66047       51.69298        0.32997
C         63.68660       51.18170        1.26361
C         63.06964       50.14817        2.20230
O         62.09934       50.46965        2.87494
C         64.29089       52.39247        2.03352
C         65.33749       52.00278        3.11414
C         64.89279       53.41259        1.04228
C         66.59088       51.29235        2.59753
H         61.75106       51.87365        0.81487
H         64.51761       50.72346        0.69379
H         63.46296       52.90683        2.57056
H         64.85773       51.35017        3.87402
H         65.66296       52.93008        3.63438
H         65.30252       54.28921        1.58705
H         65.70223       52.95691        0.43394
H         64.11848       53.78941        0.34128
H         67.27682       51.09236        3.44644
H         66.32542       50.32080        2.15095
H         67.13946       51.91069        1.85818
N         63.57906       48.88270        2.28879
C         62.96856       47.81412        3.07532
C         63.86395       47.29127        4.19516
O         63.38086       46.47401        4.96681
C         62.62106       46.64611        2.13287
C         61.72357       47.08348        1.01267
O         60.49784       47.57196        1.27974
O         62.10355       46.99796       -0.14425
H         64.40762       48.64308        1.73685
H         62.03717       48.18414        3.55779
H         62.11597       45.83099        2.69337
H         63.56638       46.23977        1.70486
N         65.16788       47.67195        4.34464
C         66.01664       47.17119        5.42929
C         67.46402       47.61483        5.19500
O         67.65420       48.81213        5.02345
C         65.53494       47.73860        6.78965
C         66.37723       47.24076        7.94409
C         67.34958       48.07840        8.51750
C         66.20838       45.94002        8.45261
C         68.14673       47.62064        9.57049
C         66.99981       45.49036        9.51680
C         67.97085       46.32867       10.07185
H         65.58109       48.31313        3.65340
H         65.94130       46.06808        5.43743
H         64.47145       47.49816        7.00089
H         65.59871       48.84711        6.73019
H         67.50495       49.07912        8.13525
H         65.46156       45.27838        8.03159
H         68.90466       48.26682        9.99381
H         66.86405       44.49100        9.91057
H         68.58920       45.97741       10.88816
N         68.54709       46.76060        5.22365
C         69.92667       47.24176        5.13770
C         70.42807       47.40857        3.70035
O         71.54716       47.00421        3.40942
C         70.73878       46.14558        5.86923
C         69.69339       45.45931        6.72799
C         68.52365       45.41660        5.75855
H         69.99141       48.18973        5.71830
H         71.05401       45.35902        5.14565
H         71.64544       46.51182        6.39696
H         70.00420       44.46851        7.12156
H         69.42976       46.12604        7.57550
H         68.74030       44.69917        4.93426
H         67.59924       45.10696        6.27259
N         69.63828       47.93267        2.72241
C         70.06766       47.99948        1.32682
C         71.13216       49.06821        1.10485
O         71.63647       49.15473       -0.00710
C         68.87173       48.32597        0.41851
C         67.73775       47.27819        0.46940
C         66.54313       47.86636       -0.20900
O         65.90804       47.30356       -1.24959
O         66.13201       48.93695        0.19202
H         68.68523       48.22992        2.95641
H         70.46564       47.00477        1.02532
H         69.19661       48.42239       -0.64100
H         68.49040       49.31748        0.75443
H         67.43515       47.07549        1.51788
H         68.05221       46.31883        0.00535
N         71.50040       49.94635        2.08234
C         72.47074       50.99157        1.84174
H         73.44507       50.54734        1.54925
H         72.10901       51.66213        1.03251
H         72.61271       51.59617        2.76262
H         71.07306       49.90534        3.01788
Ca        64.37402       48.83930       -1.89534
O         65.10780       51.08996       -4.21424
H         65.98181       51.47783       -3.96221
H         65.26069       50.11186       -4.21987
O         67.35093       50.10394       -2.20100
H         67.00016       50.75539       -1.54252
H         68.32180       50.28873       -2.24228

Ca 1.0



