%chk=apoCaM-CA-Ng.loop3.water2.frame533.chk
%nprocshared=20
%mem=10GB
%nosave
#b3lyp/svp scf=(tight,noincore,xqc) Test 
#IOP(5/87=12) Density=Current Pop=(MK,readradii) iop(6/33=2) iop(6/42=6)

apoCaM-CA-Ng.loop3.water2.frame533 

   0  1 
C         66.06242       12.42810       73.10042
C         65.43695       11.87921       74.34595
O         64.78246       10.84783       74.28316
H         67.16531       12.46228       73.22694
H         65.82417       11.78753       72.22464
H         65.68275       13.45356       72.91213
N         65.62038       12.51751       75.53471
C         65.08907       12.00521       76.79030
C         63.57183       11.99133       76.75491
O         62.95634       13.04547       76.67643
C         65.64349       12.83590       77.96951
C         65.39014       12.25064       79.33026
O         65.85842       12.89708       80.41399
O         64.79894       11.19136       79.46995
H         66.20002       13.37176       75.54377
H         65.45724       10.96871       76.91037
H         65.23600       13.86875       77.92310
H         66.74645       12.89675       77.86733
N         62.90948       10.80195       76.76375
C         61.45803       10.68204       76.69599
C         60.80904       11.24809       77.94535
O         59.81060       11.94501       77.83294
C         61.06933        9.20036       76.51224
C         59.56617        9.01467       76.24418
C         59.22966        7.55105       75.92929
C         57.73379        7.38750       75.62327
N         57.41369        6.00057       75.28689
H         63.46962        9.93483       76.78800
H         61.09119       11.21693       75.79075
H         61.37486        8.62162       77.40737
H         61.62116        8.81043       75.62727
H         59.27898        9.63641       75.36742
H         58.98045        9.34916       77.12737
H         59.50327        6.90878       76.79425
H         59.81614        7.22458       75.04190
H         57.45565        8.04116       74.76619
H         57.13722        7.69891       76.50938
H         56.38971        5.92456       75.08857
H         57.94407        5.70604       74.43465
H         57.65199        5.37071       76.08690
N         61.34930       11.00053       79.17263
C         60.76459       11.46163       80.42842
C         61.45176       12.70946       80.97733
O         60.99137       13.22614       81.98589
C         60.71599       10.28892       81.43342
C         62.06041        9.65140       81.67954
O         63.07069       10.36427       82.20049
O         62.24189        8.47735       81.39860
H         62.24210       10.48734       79.21392
H         59.71480       11.78676       80.25728
H         60.03595        9.51248       81.01949
H         60.28969       10.63357       82.39945
N         62.48731       13.30829       80.32405
C         63.03381       14.60496       80.69175
C         63.74729       14.70108       82.02713
O         64.18390       15.80622       82.31824
H         62.83934       12.89417       79.45377
H         62.20629       15.34792       80.68135
H         63.76337       14.91351       79.91081
N         63.91352       13.65100       82.89219
C         64.59120       13.80667       84.18031
C         65.82112       12.87143       84.29286
O         65.42196       11.52995       84.33039
C         63.61131       13.68132       85.38212
C         63.13152       12.28733       85.72819
N         62.33715       11.57469       84.89929
O         63.46444       11.79917       86.79851
H         63.55154       12.72847       82.63717
H         64.98368       14.84393       84.25406
H         62.73774       14.35043       85.22458
H         64.15349       14.06650       86.27440
H         62.00968       11.96491       84.00948
H         62.03216       10.62524       85.16178
N         66.59524       13.22287       85.49211
C         67.64228       12.26637       85.87849
C         68.67651       12.03572       84.79903
O         69.25247       12.99382       84.30357
H         67.02809       14.16428       85.34429
H         67.17818       11.30976       86.20308
H         68.16406       12.68221       86.76672
N         69.00195       10.76354       84.43008
C         70.01785       10.44912       83.42611
C         69.58391       10.89036       82.03329
O         68.49542       11.42143       81.87687
C         70.32433        8.93234       83.45238
C         71.00698        8.50508       84.72936
C         70.37326        7.62526       85.62243
C         72.30306        8.96411       85.02326
C         71.02446        7.21470       86.79012
C         72.95417        8.54765       86.18752
C         72.31627        7.67002       87.07539
O         72.93479        7.25504       88.19931
H         68.53308        9.98501       84.91889
H         70.95489       10.99666       83.66959
H         70.99657        8.63894       82.61965
H         69.37389        8.38066       83.32937
H         69.37624        7.25638       85.41662
H         72.81603        9.63382       84.34410
H         70.52607        6.53674       87.47132
H         73.95566        8.90353       86.39504
H         73.83216        7.53763       88.42700
N         70.43594       10.74210       80.97750
C         70.20397       11.21763       79.61390
C         69.05674       10.49528       78.90513
O         67.92270       10.58478       79.34900
C         69.95533       12.76532       79.57037
C         69.87054       13.32191       78.11854
C         70.99634       13.54852       80.39044
C         71.16874       13.23818       77.30745
H         71.35988       10.32033       81.15905
H         71.14160       11.01971       79.05417
H         68.96849       12.97564       80.03636
H         69.56987       14.39138       78.16505
H         69.07779       12.78666       77.55643
H         70.77377       14.63652       80.34488
H         70.95931       13.25219       81.45892
H         72.02510       13.36937       80.01888
H         71.97586       13.83020       77.78516
H         71.50437       12.19024       77.18019
H         70.99508       13.66358       76.29680
N         69.27318        9.89410       77.69641
C         68.17227        9.58670       76.78100
C         67.30809        8.37766       77.13814
O         66.25962        8.23277       76.52224
C         68.69284        9.46744       75.33945
O         69.35849       10.65215       74.98738
H         70.23677        9.87201       77.33006
H         67.52193       10.47836       76.78163
H         67.82766        9.31238       74.65411
H         69.39302        8.60718       75.25922
H         69.45050       10.64519       73.99976
N         67.67355        7.44498       78.06046
C         66.84299        6.27415       78.36452
C         65.59404        6.68471       79.13809
O         65.75235        7.34106       80.15527
C         67.64177        5.27074       79.20479
H         68.59168        7.54170       78.52003
H         66.59103        5.74992       77.42028
H         67.02744        4.36704       79.40640
H         68.54969        4.95420       78.64790
H         67.95541        5.71270       80.17272
N         64.31482        6.35236       78.79287
C         63.89890        5.54405       77.65271
C         64.41253        4.11163       77.76771
O         64.18706        3.51658       78.81292
C         62.36384        5.46589       77.60951
H         63.56931        6.70680       79.41477
H         64.19646        6.06699       76.73145
H         61.93353        6.47905       77.52842
H         62.02628        4.88037       76.72851
H         61.95918        4.98789       78.52834
N         65.02260        3.42382       76.75408
C         65.29249        3.93040       75.41358
C         66.65354        3.44899       74.95342
O         67.51923        4.27429       74.69514
C         64.15435        3.50031       74.46574
C         64.28519        4.13194       73.07242
C         63.09672        3.79375       72.21809
O         63.24482        3.19168       71.16701
O         61.86084        4.17202       72.59982
H         65.21212        2.42369       76.92661
H         65.32184        5.03168       75.40294
H         63.19767        3.85127       74.90929
H         64.10421        2.39259       74.38398
H         65.21817        3.77556       72.58464
H         64.33504        5.23841       73.16782
N         66.91809        2.11795       74.83393
C         68.21136        1.62555       74.41523
H         68.99239        1.95946       75.13107
H         68.20337        0.51493       74.39160
H         68.45079        2.00288       73.39873
H         66.18405        1.42696       75.04949
Ca        65.90622       10.65012       82.28824
O         65.56645        8.19349       83.82884
H         66.05722        8.56360       84.60533
H         64.84684        7.64189       84.22547
O         67.97409        8.26524       81.31875
H         68.84623        7.95606       80.96744
H         67.68169        7.54263       81.93030

Ca 1.0



