%chk=apoCaM-CA-Ng.loop4.water3.frame364.chk
%nprocshared=20
%mem=10GB
%nosave
#b3lyp/svp scf=(tight,noincore,xqc) Test 
#IOP(5/87=12) Density=Current Pop=(MK,readradii) iop(6/33=2) iop(6/42=6)

apoCaM-CA-Ng.loop4.water3.frame364 

   -3  1 
C         64.80146       86.94707       49.48737
C         66.13549       86.92969       50.16716
O         66.77912       87.96139       50.17740
H         64.15701       87.71007       49.97593
H         64.93407       87.22180       48.42000
H         64.29782       85.96172       49.55082
N         66.60313       85.80742       50.78669
C         67.85716       85.74569       51.53105
C         67.87250       86.72272       52.68403
O         68.68803       87.62119       52.69125
C         69.14075       85.71434       50.64782
C         69.38374       86.65330       49.47773
O         69.53633       87.99308       49.56645
O         69.56126       86.14683       48.38071
H         66.01233       84.96261       50.78410
H         67.90694       84.75693       52.04338
H         69.14898       84.69421       50.20029
H         70.02532       85.75431       51.32117
N         67.00535       86.53676       53.72609
C         66.92330       87.30579       54.97301
C         68.15079       87.08059       55.86059
O         67.99116       86.45849       56.90271
C         66.55966       88.79861       54.73805
C         66.36205       89.58827       56.06459
C         65.30122       88.90963       53.85432
C         65.23434       89.08110       56.97632
H         66.33851       85.75315       53.64163
H         66.06754       86.86242       55.53055
H         67.39296       89.29061       54.19287
H         66.14585       90.64974       55.81330
H         67.30711       89.57343       56.64724
H         64.43421       88.39399       54.31781
H         65.03794       89.97432       53.68644
H         65.47685       88.44550       52.86167
H         64.25029       89.11889       56.46628
H         65.42882       88.04667       57.32541
H         65.17010       89.72931       57.87548
N         69.40209       87.51166       55.52202
C         70.58283       87.19197       56.30835
C         70.55090       87.91896       57.64852
O         70.53961       87.22204       58.65353
C         71.87032       87.40771       55.47945
C         73.09876       86.95673       56.21988
O         73.20992       85.67802       56.63035
O         74.00994       87.73967       56.43361
H         69.54719       88.04992       54.66760
H         70.56739       86.09249       56.49875
H         71.98213       88.45490       55.15291
H         71.79621       86.79618       54.55281
N         70.49497       89.27851       57.80613
C         70.51420       90.26727       56.72814
C         70.34051       91.69976       57.23377
O         70.12875       91.87409       58.42545
H         70.43790       89.60932       58.78064
H         69.69379       90.05720       56.01656
H         71.49065       90.19479       56.24011
N         70.39395       92.81564       56.43757
C         70.66017       92.91261       55.00478
C         69.60604       92.19740       54.17544
O         69.87242       91.09633       53.71378
C         72.11458       92.50355       54.64654
C         72.54334       92.91044       53.25658
O         73.78919       92.61528       52.84012
O         71.79461       93.52210       52.51098
H         70.23842       93.72063       56.91053
H         70.61969       93.99305       54.74671
H         72.25979       91.41366       54.72498
H         72.80849       93.00358       55.35497
N         68.40756       92.76002       53.84408
C         67.93478       94.08550       54.19998
C         67.46133       94.18895       55.62441
O         67.56074       93.23482       56.38319
H         67.79250       92.22564       53.22531
H         67.03505       94.29796       53.57954
H         68.68891       94.85992       53.94902
N         66.85095       95.33913       56.02366
C         66.26801       95.53373       57.34384
C         64.73920       95.56729       57.29269
O         64.14001       95.59295       58.35775
C         66.91405       96.74661       58.06040
C         67.00086       98.05651       57.25537
C         65.67156       98.57949       56.80547
N         64.72168       98.92371       57.70129
O         65.45624       98.71035       55.61167
H         66.74848       96.09614       55.33015
H         66.48369       94.65202       57.98750
H         67.96507       96.47260       58.29874
H         66.39662       96.91914       59.02890
H         67.65442       97.89735       56.37045
H         67.49102       98.83158       57.88259
H         64.88846       98.83393       58.71334
H         63.81826       99.28795       57.37703
N         64.04141       95.46081       56.11780
C         62.59895       95.19803       56.06386
C         61.80639       96.28088       55.34457
O         60.60309       96.09705       55.19618
C         62.34821       93.82123       55.36576
C         63.08589       92.68086       56.08371
C         62.72557       93.82005       53.87050
H         64.54914       95.46934       55.22498
H         62.17813       95.12626       57.09055
H         61.25875       93.60006       55.42769
H         62.83787       91.70679       55.60916
H         64.18691       92.82115       56.02861
H         62.78018       92.63553       57.14974
H         63.80924       93.99585       53.71679
H         62.46797       92.83795       53.42136
H         62.15817       94.59642       53.31511
N         62.38375       97.41130       54.85048
C         61.65998       98.37763       54.03088
C         62.29748       98.54494       52.65017
O         61.71782       99.25936       51.84683
C         61.61193       99.75707       54.72922
C         60.93316       99.73122       56.07860
N         59.64405       99.34225       56.20707
O         61.54832      100.09494       57.06825
H         63.37551       97.58840       55.04686
H         60.61645       98.03482       53.85857
H         61.05481      100.47573       54.08967
H         62.65117      100.13925       54.84650
H         59.09430       99.04698       55.38868
H         59.19179       99.34370       57.13395
N         63.51109       97.99285       52.32144
C         64.22176       98.33604       51.09274
C         64.88584       97.12933       50.43782
O         65.55109       96.36486       51.12031
C         65.34019       99.34513       51.43266
C         64.82949      100.64334       52.01110
C         65.24744      101.06060       53.28428
C         63.95726      101.46447       51.27468
C         64.79804      102.27135       53.81635
C         63.50803      102.67594       51.80828
C         63.92655      103.08442       53.07865
O         63.49227      104.25968       53.57598
H         64.03176       97.44099       53.01319
H         63.55309       98.83316       50.35854
H         65.88809       99.60893       50.50687
H         66.05934       98.86595       52.13428
H         65.92932      100.45441       53.86266
H         63.62851      101.17294       50.28541
H         65.13334      102.57811       54.79891
H         62.83874      103.30066       51.23026
H         63.76811      104.58276       54.44565
N         64.88905       97.02710       49.07307
C         65.73634       96.12317       48.28697
C         65.37399       94.64862       48.35987
O         66.05390       93.87622       47.69647
C         67.24133       96.31651       48.61223
C         67.70346       97.77012       48.44661
C         69.17732       97.89991       48.70201
O         69.62324       98.67459       49.70948
O         69.97872       97.31334       47.99198
H         64.35225       97.72475       48.53636
H         65.60605       96.40130       47.21636
H         67.83528       95.68557       47.91437
H         67.46793       95.97381       49.64406
H         67.16223       98.40954       49.16597
H         67.48185       98.13003       47.41946
N         64.31574       94.17112       49.07375
C         63.96792       92.75126       49.09988
C         62.65038       92.48356       48.38660
O         62.25266       91.32747       48.33452
C         63.91091       92.25341       50.55913
C         65.20985       92.46538       51.35940
C         66.37318       91.65789       50.85366
O         66.83430       91.84912       49.74073
O         66.94785       90.74560       51.65834
H         63.71406       94.82427       49.59606
H         64.71738       92.14333       48.55225
H         63.65468       91.17058       50.58157
H         63.09876       92.80791       51.07488
H         65.01162       92.15620       52.40796
H         65.48428       93.54097       51.37364
N         61.93576       93.47898       47.78140
C         60.69980       93.24704       47.06139
H         59.88707       93.84204       47.52659
H         60.82554       93.57219       46.00707
H         60.39867       92.17860       47.06179
H         62.27053       94.45182       47.80536
Ca        68.72071       89.58271       50.92877
O         71.81578       89.38664       51.82452
H         72.42670       89.28825       52.59744
H         71.72684       88.47034       51.45972
O         69.72203       90.72252       48.13937
H         68.99587       91.26686       47.74367
H         69.80462       89.94167       47.53633
O         69.63243       92.80835       50.58014
H         69.95841       93.17392       49.71974
H         70.30228       92.12223       50.82727

Ca 1.0



