%chk=apoCaM-CA-Ng.loop3.water5.frame312.chk
%nprocshared=20
%mem=10GB
%nosave
#b3lyp/svp scf=(tight,noincore,xqc) Test 
#IOP(5/87=12) Density=Current Pop=(MK,readradii) iop(6/33=2) iop(6/42=6)

apoCaM-CA-Ng.loop3.water5.frame312 

   0  1 
C         47.53098       49.58241       46.11330
C         47.83303       48.24771       46.72781
O         48.16560       47.31541       46.01304
H         46.48236       49.86611       46.34540
H         48.21455       50.35042       46.53221
H         47.65395       49.55201       45.01036
N         47.71559       48.08740       48.07310
C         47.94147       46.83483       48.78646
C         46.96509       45.76272       48.31553
O         47.36878       44.63849       48.04851
C         49.42200       46.38234       48.69665
C         50.40005       47.39123       49.24461
O         51.59415       47.14001       49.22139
O         49.98448       48.56216       49.76703
H         47.42032       48.90148       48.63492
H         47.70874       47.01815       49.85954
H         49.69040       46.17309       47.63949
H         49.55048       45.44203       49.27531
N         45.63925       46.06363       48.19389
C         44.61181       45.08524       47.82572
C         44.86443       44.42462       46.47483
O         44.26278       43.39365       46.20621
C         43.22013       45.75498       47.73963
C         42.73304       46.40288       49.04496
C         41.38745       47.10680       48.80273
C         40.85244       47.84543       50.03878
N         40.53641       46.93348       51.13814
H         45.35925       47.03570       48.38507
H         44.60934       44.29146       48.60526
H         42.46624       44.99523       47.43468
H         43.26613       46.53534       46.94572
H         43.45293       47.16607       49.40309
H         42.63688       45.61373       49.81873
H         40.63054       46.37182       48.45228
H         41.52840       47.86584       48.00078
H         39.92411       48.38209       49.74121
H         41.59159       48.60542       50.37710
H         41.40277       46.47723       51.50113
H         40.10490       47.48103       51.91703
H         39.85504       46.20755       50.81778
N         45.66654       45.00432       45.54257
C         45.87867       44.45649       44.20777
C         46.62751       43.13432       44.29720
O         47.58569       43.05591       45.04919
C         46.65140       45.49081       43.36589
C         46.59098       45.20758       41.89217
O         47.12890       44.09528       41.36951
O         46.03778       46.00291       41.14946
H         46.10027       45.90833       45.77002
H         44.88733       44.32579       43.71756
H         47.69867       45.56763       43.71472
H         46.16758       46.48302       43.51336
N         46.24196       42.05104       43.56445
C         46.88133       40.73879       43.63922
C         48.33612       40.65732       43.17702
O         48.87421       39.56040       43.21791
H         45.42266       42.14577       42.94670
H         46.30248       40.03568       43.00070
H         46.81934       40.37147       44.68613
N         49.04125       41.73840       42.73699
C         50.43925       41.69609       42.30560
C         51.32437       42.53848       43.22383
O         52.49231       42.71421       42.90577
C         50.52461       42.22602       40.85621
C         49.84699       41.31144       39.86760
N         50.32625       40.06659       39.64034
O         48.87415       41.70475       39.24445
H         48.58653       42.65685       42.70703
H         50.85541       40.66580       42.33025
H         51.58347       42.32558       40.53285
H         50.06059       43.23390       40.82197
H         51.16155       39.72378       40.13631
H         49.87272       39.45003       38.94995
N         50.85850       43.06777       44.39231
C         51.64360       43.92847       45.26012
C         51.94330       45.22517       44.55569
O         53.10098       45.58866       44.41224
H         49.90410       42.86167       44.69880
H         52.57065       43.40893       45.58590
H         51.04375       44.16783       46.16609
N         50.91124       45.95423       44.05248
C         51.07916       47.13695       43.21830
C         51.16695       46.70124       41.76839
O         50.68337       45.63133       41.42925
C         49.88447       48.08218       43.46882
C         49.77515       49.26298       42.53713
C         50.75334       50.26828       42.50706
C         48.65671       49.36728       41.69084
C         50.61357       51.35796       41.63846
C         48.52183       50.45017       40.82334
C         49.50070       51.45118       40.79353
O         49.38297       52.50131       39.95627
H         49.96513       45.55375       44.13903
H         52.03014       47.65278       43.47751
H         49.92915       48.44839       44.51569
H         48.95764       47.48174       43.36315
H         51.61897       50.20952       43.15420
H         47.88518       48.60711       41.69949
H         51.37275       52.12893       41.61789
H         47.65583       50.50772       40.17557
H         48.63339       52.59166       39.34986
N         51.84165       47.46912       40.86506
C         52.03649       47.06675       39.47505
C         52.80842       45.75418       39.45213
O         52.31076       44.79874       38.87503
C         52.75716       48.17722       38.64071
C         52.03134       49.55358       38.67550
C         52.93641       47.74906       37.16891
C         50.61579       49.56240       38.08565
H         52.25833       48.34908       41.19633
H         51.04316       46.90477       39.00407
H         53.76912       48.33462       39.07583
H         52.64187       50.28990       38.10860
H         51.97580       49.92986       39.71322
H         51.96357       47.54203       36.67992
H         53.47181       48.53891       36.60013
H         53.52672       46.82964       37.08053
H         49.94466       48.89058       38.65439
H         50.20224       50.58956       38.14052
H         50.61462       49.27122       37.01657
N         53.99995       45.60868       40.10860
C         54.71634       44.33222       40.12987
C         55.28386       43.97109       38.76272
O         55.60546       42.81244       38.54895
C         55.84642       44.33417       41.16885
O         55.34729       44.64010       42.44306
H         54.36939       46.40748       40.64779
H         53.98565       43.54711       40.43265
H         56.60799       45.09513       40.89678
H         56.36153       43.34587       41.19269
H         54.88523       43.82552       42.77115
N         55.41367       44.91721       37.78629
C         55.81307       44.65469       36.40805
C         54.85984       43.65178       35.77813
O         55.29385       42.66044       35.20309
C         57.28687       44.23808       36.32809
H         55.18379       45.89021       38.01384
H         55.71270       45.61112       35.84646
H         57.92231       45.02468       36.78870
H         57.46658       43.28069       36.85875
H         57.59246       44.12162       35.26661
N         53.51988       43.82884       35.93121
C         52.50885       42.87782       35.50137
C         51.34280       43.60893       34.87719
O         50.85373       44.55899       35.47365
C         52.01195       42.09678       36.71952
H         53.20110       44.63416       36.48901
H         52.92776       42.12321       34.79840
H         51.24502       41.35537       36.40759
H         52.85934       41.54738       37.18249
H         51.56832       42.76931       37.47972
N         50.80822       43.19294       33.69813
C         49.63240       43.79564       33.07925
C         49.91941       45.24386       32.72328
O         49.18771       46.13693       33.13013
C         48.37374       43.65073       33.98115
C         48.10421       42.19597       34.39278
C         46.86902       42.09896       35.24303
O         45.92507       41.41505       34.88197
O         46.80154       42.75517       36.41593
H         51.23517       42.38502       33.21833
H         49.42930       43.25008       32.13112
H         47.49095       44.04105       33.42746
H         48.48730       44.26078       34.90192
H         48.95995       41.80463       34.98369
H         47.98356       41.56952       33.48305
N         51.00904       45.54606       31.96736
C         51.34809       46.90800       31.61978
H         52.29059       46.92380       31.03285
H         50.53621       47.35624       31.00931
H         51.49508       47.50939       32.54269
H         51.62862       44.78785       31.64434
Ca        46.93552       43.83629       39.14208
O         44.17812       43.99770       37.86834
H         43.48106       43.73729       38.52126
H         44.17450       44.98768       37.88317
O         49.44641       44.59011       37.80794
H         49.20841       43.73656       37.36690
H         49.73941       44.32621       38.71415
O         48.31937       46.88285       39.20604
H         47.58476       47.46355       39.52418
H         48.60850       46.38135       40.00820
O         46.84790       45.85293       36.68023
H         47.61132       46.46220       36.51805
H         46.04793       46.43156       36.61043
O         45.22338       41.73297       40.35251
H         44.27320       42.00662       40.40241
H         45.28081       41.16987       39.54063

Ca 1.0



