%chk=apoCaM-CA-Ng.loop3.water3.frame256.chk
%nprocshared=20
%mem=10GB
%nosave
#b3lyp/svp scf=(tight,noincore,xqc) Test 
#IOP(5/87=12) Density=Current Pop=(MK,readradii) iop(6/33=2) iop(6/42=6)

apoCaM-CA-Ng.loop3.water3.frame256 

   0  1 
C         40.91035       56.36590       30.52434
C         42.18756       56.95591       30.00208
O         42.31615       58.17148       29.99917
H         40.05905       56.72673       29.91770
H         40.92399       55.25685       30.47729
H         40.75923       56.67514       31.57921
N         43.17700       56.14542       29.52699
C         44.45403       56.61788       29.00055
C         44.23201       57.53624       27.81559
O         44.71267       58.66216       27.80944
C         45.30695       57.26810       30.11285
C         45.58619       56.29505       31.22309
O         45.16822       56.56018       32.47520
O         46.19781       55.26286       30.99667
H         43.01752       55.12642       29.52032
H         45.01787       55.73778       28.61808
H         44.78811       58.15968       30.52499
H         46.27936       57.60301       29.69120
N         43.46957       57.10320       26.77480
C         43.17296       57.91241       25.60151
C         41.72354       58.36706       25.61506
O         41.36449       59.18389       24.77801
C         43.50385       57.06468       24.34845
C         43.30049       57.74045       22.97785
C         44.11282       59.02772       22.76947
C         45.62874       58.80195       22.87717
N         46.35672       60.04515       22.63388
H         43.05029       56.16152       26.83412
H         43.79453       58.83273       25.61697
H         42.86808       56.15115       24.36483
H         44.55554       56.71988       24.42652
H         42.22504       57.96933       22.82801
H         43.58043       57.00807       22.18913
H         43.79403       59.79752       23.50274
H         43.88061       59.41359       21.75280
H         45.94315       58.03759       22.13195
H         45.89097       58.43481       23.89216
H         46.14697       60.40372       21.67425
H         46.08679       60.76128       23.34706
H         47.38271       59.85999       22.71186
N         40.82299       57.87225       26.51479
C         39.42051       58.22473       26.49219
C         38.95747       58.53716       27.90981
O         38.23577       57.74606       28.49822
C         38.64935       57.05678       25.83227
C         37.27068       57.51727       25.49909
O         37.13000       58.45988       24.73345
O         36.19162       57.02319       26.12263
H         41.09763       57.14086       27.18370
H         39.25404       59.12546       25.85864
H         38.64671       56.16608       26.49570
H         39.13495       56.77784       24.87143
N         39.35970       59.68370       28.52512
C         39.02253       60.03962       29.89689
C         37.53258       60.08755       30.15924
O         37.09004       59.44536       31.10251
H         39.94874       60.34478       27.99652
H         39.44767       61.04234       30.11719
H         39.49624       59.31459       30.59641
N         36.69257       60.83020       29.37692
C         35.25414       60.95056       29.65222
C         34.51901       59.60661       29.66817
O         33.39752       59.55192       30.15223
C         34.58075       61.95465       28.68157
C         34.35085       61.42602       27.25260
N         33.92184       62.49271       26.35808
O         35.48624       60.83439       26.72407
H         37.10566       61.35659       28.59280
H         35.18499       61.38282       30.67580
H         35.19969       62.87847       28.65272
H         33.58128       62.23137       29.07881
H         33.00881       62.87300       26.68845
H         33.77493       62.08161       25.40722
N         35.11035       58.48154       29.17663
C         34.57513       57.13532       29.25266
C         33.30124       56.91733       28.47804
O         32.68963       57.85612       27.98989
H         36.02987       58.56313       28.73678
H         34.42014       56.84432       30.31473
H         35.33689       56.44808       28.82349
N         32.84399       55.64300       28.34423
C         31.58019       55.29571       27.69880
C         31.57146       55.64684       26.21753
O         32.59148       56.05873       25.68166
C         31.29093       53.78232       27.87499
C         31.43362       53.35175       29.31925
C         30.64272       53.92863       30.32663
C         32.39843       52.39050       29.67182
C         30.82670       53.56238       31.66380
C         32.57728       52.02360       31.00761
C         31.79826       52.61090       32.00855
O         31.99582       52.25838       33.29467
H         33.41214       54.89442       28.76986
H         30.77784       55.87352       28.20728
H         32.01326       53.21201       27.24835
H         30.26861       53.53840       27.51630
H         29.89669       54.67310       30.08081
H         33.02456       51.93354       28.91517
H         30.21978       54.02501       32.43142
H         33.33047       51.28920       31.26498
H         31.48987       52.65187       34.01963
N         30.42083       55.50651       25.49829
C         30.30506       55.80676       24.07539
C         29.38192       57.00644       23.91453
O         29.81693       57.99836       23.34557
C         29.82108       54.55195       23.28822
C         30.71520       53.30444       23.53929
C         29.72779       54.82666       21.77296
C         32.16136       53.42270       23.03978
H         29.57461       55.18321       25.99011
H         31.29271       56.08814       23.65671
H         28.80260       54.29236       23.65322
H         30.25349       52.42898       23.03222
H         30.73647       53.07766       24.62631
H         30.70928       55.11861       21.34845
H         29.35367       53.92523       21.24200
H         29.03835       55.65143       21.54828
H         32.19989       53.56396       21.94016
H         32.69127       54.25767       23.53753
H         32.70648       52.48331       23.26838
N         28.11547       57.02239       24.43589
C         27.27108       58.21600       24.36425
C         26.85708       58.55887       22.94271
O         26.41816       59.67770       22.72171
C         26.02842       58.09039       25.25459
O         25.21232       57.04416       24.80513
H         27.77533       56.19635       24.95035
H         27.87466       59.06318       24.76372
H         25.46466       59.05135       25.22381
H         26.35291       57.89360       26.30039
H         24.39610       57.07384       25.36856
N         26.99034       57.65502       21.92769
C         26.75224       57.95859       20.52500
C         27.66482       59.09289       20.11530
O         27.19263       60.13710       19.67850
C         25.26696       58.23118       20.25240
H         27.31248       56.70825       22.14638
H         27.02466       57.06464       19.91868
H         25.11167       58.39364       19.16366
H         24.66432       57.35000       20.55899
H         24.90102       59.12394       20.79771
N         29.01218       58.94704       20.24775
C         29.95034       60.01150       19.91790
C         31.38240       59.52130       19.83868
O         31.67572       58.38964       20.20489
C         29.86019       61.13891       20.96048
H         29.36413       58.03113       20.56935
H         29.69274       60.38846       18.90299
H         30.54675       61.97330       20.70644
H         28.83278       61.54966       21.02574
H         30.14163       60.74627       21.96324
N         32.32768       60.33180       19.28810
C         33.72539       59.96892       19.09826
C         33.82691       58.64809       18.34592
O         34.50416       57.73759       18.80398
C         34.47869       59.93578       20.44910
C         34.35236       61.26033       21.21741
C         35.12757       61.21092       22.50310
O         34.82809       60.29279       23.44066
O         36.02710       62.00941       22.70937
H         32.03115       61.25301       18.92653
H         34.19682       60.76057       18.47375
H         35.55513       59.73497       20.25078
H         34.08122       59.11403       21.07963
H         33.28594       61.45769       21.46049
H         34.73074       62.09342       20.58526
N         33.11667       58.46463       17.19722
C         33.09644       57.21317       16.46535
H         33.41637       57.39047       15.41866
H         33.76343       56.44665       16.91343
H         32.06160       56.80889       16.46339
H         32.52627       59.23162       16.84228
Ca        34.78584       58.73892       26.19422
O         32.79358       58.24196       23.27151
H         32.25920       59.06539       23.14633
H         32.58492       57.69037       22.47712
O         35.04076       56.19574       23.32909
H         35.34661       55.32880       23.69626
H         34.32774       55.95417       22.68658
O         31.81527       59.77856       25.78153
H         31.13527       59.52752       26.45547
H         31.38568       60.49365       25.24861

Ca 1.0



