%chk=apoCaM-CA-Ng.loop2.water3.frame812.chk
%nprocshared=20
%mem=10GB
%nosave
#b3lyp/svp scf=(tight,noincore,xqc) Test 
#IOP(5/87=12) Density=Current Pop=(MK,readradii) iop(6/33=2) iop(6/42=6)

apoCaM-CA-Ng.loop2.water3.frame812 

   -2  1 
C         94.93905       80.92908       75.51745
C         95.86987       81.91245       76.16435
O         96.85747       81.48803       76.74677
H         94.08535       81.44009       75.02472
H         95.49201       80.34872       74.74871
H         94.54191       80.23138       76.28362
N         95.62677       83.25161       76.08528
C         96.50542       84.26440       76.65466
C         97.09079       85.06329       75.50217
O         96.87091       86.26137       75.38576
C         95.70747       85.10181       77.67936
C         96.53777       86.09460       78.45433
O         95.94473       86.85512       79.39384
O         97.73876       86.20831       78.26326
H         94.79203       83.57657       75.57235
H         97.35186       83.79106       77.20001
H         95.25881       84.40624       78.42217
H         94.88061       85.63653       77.16371
N         97.85067       84.40396       74.58405
C         98.42254       85.01436       73.38936
C         97.30870       85.50053       72.47293
O         96.41785       84.70636       72.20323
C         99.26397       83.96472       72.64860
H         98.01903       83.39795       74.74438
H         99.10003       85.83418       73.69673
H         99.72577       84.39168       71.73881
H        100.07926       83.60299       73.31080
H         98.63772       83.09695       72.34868
N         97.23090       86.76408       71.95285
C         98.24398       87.81434       72.09337
C         97.72398       89.18901       71.66949
O         96.61690       89.30102       71.16312
C         99.53851       87.44949       71.31896
C         99.30248       86.93337       69.91345
O         98.67273       87.67099       68.98117
O         99.70394       85.82219       69.60818
H         96.38381       86.97326       71.40250
H         98.46817       87.94835       73.17385
H        100.08171       86.66124       71.87144
H        100.22454       88.32180       71.28953
N         98.45861       90.30618       71.96253
C         97.95880       91.66062       71.77800
C         98.95187       92.59317       71.10985
O         99.38691       93.52250       71.77499
H         99.35917       90.19644       72.45279
H         97.76094       92.06462       72.79513
H         96.99347       91.69032       71.23037
N         99.32594       92.50684       69.80156
C         98.88965       91.48186       68.87189
C         97.70437       92.00429       68.07018
O         97.85769       92.94324       67.30159
C        100.10348       91.07940       68.00011
C         99.82268       90.01343       66.98756
N        100.80883       89.56108       66.18247
O         98.70283       89.55434       66.88216
H         99.92691       93.26045       69.42921
H         98.56370       90.58381       69.43024
H        100.91087       90.71047       68.66991
H        100.48075       91.97182       67.45452
H        101.76465       89.93798       66.25325
H        100.61411       88.83043       65.48600
N         96.46335       91.46648       68.26884
C         95.24705       91.98018       67.65505
C         95.00746       91.52289       66.22849
O         94.01044       91.94429       65.65983
H         96.35367       90.73297       68.98257
H         95.24184       93.08960       67.72506
H         94.37716       91.61165       68.24117
N         95.83751       90.64874       65.59342
C         95.63028       90.16185       64.23092
C         95.50366       88.63916       64.21966
O         95.56886       88.01658       65.27107
C         96.79867       90.63438       63.32364
C         96.89315       92.16740       63.25448
O         98.02192       90.06476       63.72324
H         96.65750       90.30125       66.09375
H         94.68960       90.57376       63.80369
H         96.60803       90.30383       62.28207
H         98.36619       90.58019       64.49663
H         97.10855       92.60057       64.25426
H         97.70754       92.46149       62.55907
H         95.93786       92.59262       62.87945
N         95.34664       87.97381       63.03937
C         95.27913       86.52103       62.91018
C         96.55866       86.06434       62.23912
O         96.86507       86.53364       61.15106
C         94.01207       86.11882       62.10127
C         93.97308       84.61702       61.70196
C         92.73722       86.52227       62.86318
C         93.99317       83.62284       62.86520
H         95.31802       88.52023       62.16579
H         95.22256       86.03603       63.90937
H         94.01959       86.68548       61.14284
H         94.84073       84.39319       61.04506
H         93.05742       84.43284       61.09827
H         92.72508       87.61598       63.05390
H         91.83556       86.27197       62.26478
H         92.67396       86.00271       63.84203
H         94.92081       83.72711       63.46004
H         93.11269       83.75685       63.52444
H         93.96496       82.58958       62.45842
N         97.36785       85.15685       62.85925
C         98.66808       84.75202       62.34792
C         98.64598       83.28030       61.97040
O         99.39261       82.48402       62.52379
C         99.76749       85.06608       63.38519
C         99.75903       86.50562       63.81431
O        100.70964       87.22401       63.55046
O         98.71772       87.00453       64.51529
H         97.06608       84.75431       63.75570
H         98.92104       85.31971       61.42490
H        100.75232       84.82125       62.92852
H         99.64659       84.44008       64.28953
N         97.82669       82.86797       60.96673
C         97.81417       81.50691       60.44296
C         97.26883       80.49504       61.44916
O         96.10870       80.61913       61.81796
C         96.92910       81.45689       59.17347
C         96.80768       80.05708       58.61619
C         95.55613       79.41639       58.60074
C         97.93482       79.37297       58.13154
C         95.43696       78.11140       58.11776
C         97.81080       78.06649       57.64825
C         96.56345       77.43584       57.64319
H         97.23898       83.58121       60.50694
H         98.84747       81.24784       60.13388
H         97.34157       82.13334       58.39364
H         95.91790       81.83800       59.44152
H         94.67349       79.92160       58.97349
H         98.90806       79.84707       58.13358
H         94.47092       77.62334       58.11631
H         98.68247       77.54111       57.28084
H         96.46902       76.42362       57.27264
N         97.99560       79.40575       61.86120
C         97.41102       78.27313       62.56764
C         97.06775       78.54237       64.01950
O         96.53111       77.64074       64.64968
C         98.45834       77.16772       62.39477
C         99.74768       77.95676       62.40642
C         99.38352       79.15175       61.52785
H         96.47786       77.93721       62.06147
H         98.38886       76.32297       63.11317
H         98.35771       76.75216       61.36481
H         99.90620       78.31575       63.44918
H        100.65300       77.40423       62.07694
H        100.05561       79.99921       61.77925
H         99.45407       78.90419       60.44767
N         97.29864       79.74454       64.61962
C         96.86183       80.01974       65.98674
C         95.33942       79.99329       66.14327
O         94.88413       80.07754       67.27585
C         97.40922       81.37068       66.49885
C         96.95828       82.57954       65.66196
C         97.41997       83.85450       66.29582
O         98.72544       84.04630       66.56288
O         96.61191       84.72754       66.56565
H         97.80728       80.46779       64.09713
H         97.28644       79.22679       66.64265
H         98.52101       81.33214       66.50410
H         97.07286       81.50811       67.55086
H         95.85113       82.60137       65.56880
H         97.39192       82.52372       64.64452
N         94.49139       79.89610       65.07557
C         93.04812       79.86433       65.20340
H         92.61167       80.71881       64.64521
H         92.66325       78.91758       64.76949
H         92.71074       79.92579       66.25913
H         94.86017       79.85203       64.11721
Ca        98.63298       86.96030       66.79963
O        101.48725       85.78842       66.71257
H        101.73885       86.55798       66.14352
H        101.42396       86.16985       67.62341
O         95.64750       87.80182       68.21438
H         95.50042       88.45313       68.94352
H         94.81620       87.26489       68.19531
O         96.51738       85.03092       69.33654
H         96.88926       84.11376       69.36593
H         95.57370       84.90855       69.06302

Ca 1.0



