%chk=apoCaM-CA-Ng.loop4.water3.frame352.chk
%nprocshared=20
%mem=10GB
%nosave
#b3lyp/svp scf=(tight,noincore,xqc) Test 
#IOP(5/87=12) Density=Current Pop=(MK,readradii) iop(6/33=2) iop(6/42=6)

apoCaM-CA-Ng.loop4.water3.frame352 

   -3  1 
C         84.65368       83.99027       24.83042
C         85.74369       83.25657       24.11252
O         86.70173       82.85498       24.75504
H         83.70018       83.43283       24.72293
H         84.89147       84.08289       25.91274
H         84.54107       85.00669       24.40041
N         85.64512       83.02174       22.77064
C         86.64124       82.29787       21.98900
C         86.79905       80.85898       22.54916
O         88.12096       80.43861       22.50400
C         87.93567       83.13581       21.76130
C         88.74681       83.53645       22.96395
O         89.37933       82.61365       23.70810
O         88.88837       84.71832       23.23501
H         84.80005       83.34937       22.27852
H         86.25423       82.18883       20.94966
H         87.62243       84.06657       21.23759
H         88.60690       82.58541       21.06629
N         85.84533       79.92196       21.90771
C         85.58337       78.57050       22.48351
C         86.45933       77.51918       21.80244
O         85.92043       76.71212       21.05654
C         85.56996       78.47327       24.04386
C         85.05587       77.07211       24.48402
C         84.67820       79.56961       24.66464
C         85.16615       76.81457       25.98982
H         84.92138       80.41596       21.88786
H         84.54147       78.31727       22.16996
H         86.60347       78.59344       24.41116
H         85.64529       76.28166       23.98222
H         83.99830       76.93856       24.16740
H         83.62628       79.45509       24.32738
H         84.70877       79.53866       25.77135
H         85.02155       80.58083       24.38952
H         84.52329       77.50028       26.57637
H         84.83128       75.77920       26.21171
H         86.22044       76.92450       26.31844
N         87.81071       77.48399       21.96757
C         88.67531       76.59321       21.20130
C         88.55485       75.12319       21.59625
O         88.35790       74.32370       20.69180
C         90.15297       77.04871       21.24417
C         90.32624       78.42841       20.66549
O         90.85916       79.41367       21.41059
O         90.00161       78.65790       19.51102
H         88.25382       78.16007       22.59737
H         88.39858       76.68004       20.12386
H         90.76496       76.35027       20.63151
H         90.55597       77.03711       22.27069
N         88.71580       74.63422       22.86461
C         88.78322       75.44190       24.07455
C         89.06922       74.58742       25.30740
O         88.39730       73.57560       25.44977
H         88.72283       73.60693       22.96842
H         87.80063       75.92337       24.21142
H         89.49713       76.24371       23.95649
N         89.98511       74.89447       26.28801
C         90.77571       76.11835       26.41801
C         89.81180       77.29632       26.49101
O         89.70394       78.02326       25.51790
C         91.89051       76.22453       25.34092
C         92.86438       77.34571       25.61005
O         93.79918       77.52533       24.84669
O         92.73757       78.13995       26.69072
H         90.06897       74.22645       27.07048
H         91.35245       76.06020       27.36281
H         91.50435       76.36201       24.32188
H         92.47211       75.27841       25.34646
N         88.98723       77.51711       27.55868
C         89.12828       76.94312       28.88587
C         88.08780       75.91267       29.21350
O         87.33873       75.49198       28.34306
H         88.25416       78.22785       27.46438
H         89.08329       77.77910       29.61727
H         90.10752       76.45426       29.03051
N         88.04079       75.41716       30.48367
C         87.29165       74.22117       30.84894
C         85.94061       74.49506       31.49127
O         85.20612       73.53278       31.67059
C         88.21459       73.22733       31.60400
C         88.81949       73.68720       32.95040
C         87.82328       73.79448       34.06748
N         87.12634       72.70755       34.47051
O         87.67927       74.85848       34.64767
H         88.64594       75.85637       31.19137
H         87.01480       73.69232       29.90972
H         89.07655       73.02822       30.92961
H         87.68725       72.26058       31.74473
H         89.36987       74.64299       32.83314
H         89.56815       72.93030       33.26825
H         87.25697       71.79477       34.01224
H         86.47066       72.76904       35.25897
N         85.49008       75.75696       31.76677
C         84.09118       76.03423       32.11398
C         83.89533       76.58078       33.52145
O         82.75349       76.85957       33.85938
C         83.43546       76.96772       31.04935
C         83.45455       76.31995       29.65610
C         84.07453       78.36410       30.99064
H         86.13049       76.55483       31.65047
H         83.49562       75.09443       32.09925
H         82.36521       77.10358       31.32490
H         84.49482       76.16996       29.29757
H         82.93876       75.33622       29.68444
H         82.91933       76.96469       28.92595
H         83.52470       78.99969       30.26340
H         84.02272       78.86076       31.98198
H         85.13317       78.31232       30.66730
N         84.91750       76.69831       34.41920
C         84.69986       77.13606       35.79959
C         85.54715       78.33809       36.18729
O         85.37439       78.80398       37.30850
C         84.93785       75.95908       36.76411
C         83.98462       74.81650       36.49477
N         82.64464       74.98455       36.59704
O         84.42738       73.72188       36.18924
H         85.86351       76.41109       34.14423
H         83.64947       77.46822       35.93993
H         84.77453       76.29110       37.81243
H         85.99027       75.61302       36.67105
H         82.24001       75.89304       36.86395
H         82.00505       74.19773       36.41036
N         86.41720       78.94879       35.32957
C         87.07731       80.20945       35.67916
C         87.72114       80.87441       34.47370
O         87.92386       80.20252       33.47538
C         88.13410       80.04314       36.81199
C         89.49337       79.59466       36.29826
C         90.59773       80.45674       36.44313
C         89.67270       78.36526       35.64062
C         91.84735       80.10857       35.92865
C         90.92892       78.01930       35.12298
C         92.01669       78.89094       35.25956
O         93.21493       78.55393       34.74015
H         86.51506       78.57082       34.37670
H         86.26254       80.88414       36.02700
H         87.77409       79.37004       37.61622
H         88.26168       81.04347       37.27933
H         90.49121       81.41343       36.93959
H         88.84221       77.68441       35.51035
H         92.67893       80.79393       36.04023
H         91.05597       77.07753       34.60420
H         93.98384       79.14006       34.79926
N         88.14537       82.17032       34.54965
C         88.86071       82.92293       33.51540
C         87.97277       83.33492       32.33599
O         87.83338       84.53036       32.11450
C         90.15267       82.18908       33.08467
C         91.12695       83.02332       32.23193
C         91.76191       84.16616       32.98597
O         91.09465       85.10810       33.38097
O         93.09139       84.16558       33.20304
H         87.99581       82.65967       35.44673
H         89.17104       83.86529       34.00941
H         89.88388       81.28295       32.50445
H         90.70464       81.86137       33.99030
H         90.62698       83.39996       31.31502
H         91.94591       82.34045       31.91709
N         87.33383       82.42540       31.54235
C         86.47659       82.77487       30.41062
C         85.27274       83.62731       30.80453
O         84.59527       84.09653       29.89962
C         85.91170       81.49177       29.74794
C         86.93950       80.49773       29.18856
C         87.62297       80.97971       27.94299
O         88.40266       81.91788       27.95787
O         87.37502       80.30817       26.80510
H         87.46832       81.43604       31.72591
H         87.08537       83.35305       29.68337
H         85.21132       81.75112       28.92303
H         85.32346       80.95727       30.52730
H         86.36785       79.58379       28.91156
H         87.68995       80.18320       29.94182
N         84.91507       83.84756       32.10415
C         83.76591       84.64530       32.48465
H         83.05712       84.01614       33.06239
H         84.10079       85.49049       33.12080
H         83.22554       85.06247       31.60877
H         85.45183       83.42469       32.87300
Ca        88.31712       80.29621       24.76176
O         91.16093       83.24425       26.34276
H         91.34934       84.13195       25.94716
H         91.98347       83.01868       26.84569
O         91.44161       80.27685       24.25945
H         92.34057       80.28592       24.67278
H         91.31046       79.33707       23.97861
O         90.90450       80.30683       27.46566
H         91.83647       80.55008       27.23789
H         90.83732       80.47333       28.43897

Ca 1.0



