%chk=apoCaM-CA-Ng.loop3.water6.frame24.chk
%nprocshared=20
%mem=10GB
%nosave
#b3lyp/svp scf=(tight,noincore,xqc) Test 
#IOP(5/87=12) Density=Current Pop=(MK,readradii) iop(6/33=2) iop(6/42=6)

apoCaM-CA-Ng.loop3.water6.frame24 

   0  1 
C         84.56634       66.48119       51.74823
C         84.89056       67.69365       52.56647
O         85.68269       68.51926       52.13586
H         83.48004       66.46192       51.52195
H         85.13590       66.48359       50.79862
H         84.83588       65.56685       52.31922
N         84.32301       67.84072       53.79439
C         84.59769       68.93971       54.71156
C         86.08114       69.01355       55.02343
O         86.68075       70.07557       54.92471
C         84.03473       70.28007       54.19264
C         82.55258       70.20361       53.96056
O         81.72226       69.90553       54.97853
O         82.09308       70.42244       52.85133
H         83.68385       67.10104       54.12603
H         84.07994       68.71061       55.67068
H         84.54895       70.57188       53.25179
H         84.22252       71.07318       54.94936
N         86.73370       67.88533       55.41179
C         88.12910       67.85746       55.83366
C         88.99848       67.05885       54.86157
O         90.20962       67.03540       55.03302
C         88.10612       67.27299       57.25191
C         89.39340       67.35623       58.07697
C         89.20921       66.65300       59.44011
C         88.08339       67.24832       60.31475
N         87.92757       66.49244       61.55541
H         86.20170       67.00084       55.44844
H         88.53511       68.89215       55.86461
H         87.77080       66.21324       57.18763
H         87.33614       67.85943       57.79190
H         89.67514       68.42176       58.22450
H         90.21995       66.84266       57.54444
H         90.16707       66.71227       60.00012
H         88.98630       65.58007       59.25112
H         87.10723       67.20921       59.78988
H         88.31416       68.31149       60.54650
H         87.15866       66.92122       62.12039
H         87.66438       65.50369       61.33482
H         88.81370       66.51093       62.10823
N         88.45126       66.39642       53.80157
C         89.22178       65.67121       52.80004
C         90.04703       66.64988       51.97468
O         89.48303       67.60118       51.45142
C         88.23705       64.89795       51.88746
C         88.88926       64.00053       50.87411
O         88.19166       63.36833       50.09829
O         90.22473       63.86392       50.82074
H         87.42865       66.39332       53.68908
H         89.86672       64.91504       53.30252
H         87.58042       65.62203       51.35940
H         87.59620       64.24897       52.52393
N         91.38086       66.44905       51.77365
C         92.20306       67.29640       50.91897
C         91.64380       67.35746       49.51499
O         91.41291       68.44715       49.01039
H         91.83277       65.62940       52.20529
H         93.22842       66.87033       50.87399
H         92.27272       68.31990       51.34716
N         91.34407       66.20685       48.85131
C         90.70670       66.16212       47.53777
C         89.43209       66.99430       47.52819
O         89.27649       67.80945       46.62978
C         90.39377       64.70587       47.13616
C         91.63599       63.85113       47.03541
N         92.61207       64.13896       46.14279
O         91.75585       62.87853       47.76301
H         91.53465       65.31816       49.33283
H         91.39721       66.58684       46.77585
H         89.89623       64.70160       46.14770
H         89.69379       64.26230       47.87814
H         92.52886       64.94510       45.50744
H         93.45370       63.54625       46.08097
N         88.52033       66.91141       48.54052
C         87.38418       67.81505       48.63120
C         86.22482       67.27304       47.84703
O         85.65678       66.28512       48.27984
H         88.71486       66.28617       49.33223
H         87.68948       68.83066       48.29552
H         87.06170       67.92190       49.68902
N         85.81337       67.88526       46.69946
C         84.75734       67.42681       45.79455
C         85.16549       66.20516       44.96204
O         84.99446       66.28399       43.75575
C         83.37351       67.25624       46.45714
C         82.31952       67.13603       45.37034
C         82.05457       68.22795       44.51869
C         81.62491       65.93426       45.16753
C         81.13627       68.10886       43.47306
C         80.71422       65.81290       44.11139
C         80.47213       66.89918       43.25693
O         79.61040       66.79192       42.22538
H         86.30027       68.75360       46.42635
H         84.63855       68.25608       45.06031
H         83.12592       68.13895       47.08611
H         83.38881       66.35711       47.10823
H         82.56606       69.17277       44.65606
H         81.80521       65.08434       45.80977
H         80.95159       68.95493       42.82197
H         80.20474       64.87143       43.95211
H         79.14789       65.96623       42.02375
N         85.68609       65.06045       45.51361
C         86.24264       63.90821       44.79939
C         87.60209       64.23601       44.16110
O         88.54460       63.50823       44.44373
C         85.21473       63.18737       43.88148
C         83.90944       62.82003       44.64665
C         85.82325       61.91178       43.26297
C         84.07067       61.83878       45.82072
H         85.73039       64.97027       46.52511
H         86.49697       63.14764       45.57233
H         84.93482       63.86587       43.04880
H         83.18768       62.37243       43.92937
H         83.45358       63.74670       45.03872
H         85.07743       61.40015       42.61889
H         86.70050       62.14578       42.63714
H         86.16615       61.20475       44.04690
H         84.73355       62.24769       46.60985
H         83.07861       61.65273       46.28355
H         84.46410       60.85878       45.48136
N         87.81910       65.32063       43.35568
C         89.13479       65.67998       42.84029
C         89.57321       64.77891       41.70458
O         90.69914       64.93712       41.25324
C         89.14335       67.14118       42.35477
O         88.77423       68.00770       43.39398
H         87.06444       65.96453       43.14047
H         89.87137       65.61058       43.67289
H         88.42618       67.26872       41.51599
H         90.14991       67.42612       41.97017
H         89.56710       68.09410       43.98512
N         88.75909       63.80116       41.19962
C         89.14056       62.88036       40.13661
C         90.33370       62.00793       40.50829
O         90.76329       61.24089       39.65553
C         89.39145       63.65267       38.83293
H         87.80835       63.69303       41.56801
H         88.28345       62.19769       39.93876
H         90.25878       64.33748       38.91451
H         89.58730       62.94487       37.99968
H         88.48947       64.24703       38.57256
N         90.92014       62.05045       41.74432
C         92.10246       61.28331       42.09411
C         91.81587       60.34140       43.23858
O         90.73831       60.38661       43.82014
C         93.23061       62.24993       42.46611
H         90.53596       62.64767       42.48811
H         92.43575       60.66836       41.23023
H         94.16125       61.70085       42.71845
H         93.44286       62.92375       41.60883
H         92.93429       62.87216       43.33904
N         92.74773       59.40866       43.57650
C         92.57090       58.40400       44.61348
C         91.31123       57.60364       44.33445
O         90.42970       57.52285       45.18007
C         92.58824       59.03653       46.02231
C         93.84562       59.89650       46.23733
C         93.96970       60.39674       47.64595
O         94.89307       61.13763       47.94024
O         93.09285       60.01961       48.59514
H         93.62304       59.36919       43.03106
H         93.43850       57.70858       44.56348
H         92.56944       58.20846       46.76579
H         91.69207       59.67482       46.18298
H         93.80082       60.77360       45.55523
H         94.75721       59.30600       46.00446
N         91.14743       57.02001       43.11667
C         89.93663       56.31773       42.75625
H         89.06812       57.00834       42.82516
H         90.01122       55.95176       41.71036
H         89.78004       55.45298       43.43359
H         91.89356       57.10483       42.40967
Ca        92.05843       61.75799       50.48903
O         89.85053       60.57811       48.48028
H         89.84441       60.90824       47.54703
H         89.41049       61.29745       48.99782
O         92.53969       62.68479       53.19366
H         93.42829       62.69366       53.62937
H         92.12136       63.54146       53.45828
O         92.47892       59.35486       52.26128
H         93.25354       59.62895       52.81328
H         91.70570       59.41232       52.87650
O         94.94735       61.29950       51.31376
H         95.64671       61.39397       52.00726
H         95.44227       61.33862       50.45839
O         93.80763       64.19518       50.11250
H         94.64325       64.05938       50.62481
H         94.08550       64.70330       49.30944
O         89.66659       61.03262       52.14584
H         88.84752       61.09955       51.59453
H         89.39665       61.36520       53.03811

Ca 1.0



