%chk=apoCaM-CA-Ng.loop4.water4.frame762.chk
%nprocshared=20
%mem=10GB
%nosave
#b3lyp/svp scf=(tight,noincore,xqc) Test 
#IOP(5/87=12) Density=Current Pop=(MK,readradii) iop(6/33=2) iop(6/42=6)

apoCaM-CA-Ng.loop4.water4.frame762 

   -3  1 
C         97.68132       23.76267        6.83966
C         99.14850       23.46120        6.87312
O         99.54174       22.49015        7.50105
H         97.11374       23.01690        7.43714
H         97.48807       24.77430        7.24535
H         97.32417       23.72036        5.78921
N        100.02555       24.24900        6.18948
C        101.45156       23.96371        6.08309
C        101.62627       22.62896        5.38323
O        102.17172       21.70268        5.96961
C        102.16259       23.99477        7.46043
C        101.95269       25.28739        8.19120
O        101.37894       25.27862        9.40933
O        102.31503       26.34421        7.70008
H         99.66062       25.06910        5.68102
H        101.92692       24.74752        5.45068
H        103.25428       23.84866        7.30499
H        101.80666       23.16545        8.10579
N        101.17348       22.46746        4.10544
C        101.27900       21.20101        3.38472
C        102.43478       21.23518        2.39927
O        102.91169       22.31706        2.08536
C         99.91590       20.76995        2.74035
C         99.15366       21.86324        1.93545
C         98.97344       20.25154        3.83285
C         99.91286       22.47238        0.76170
H        100.79030       23.29046        3.61706
H        101.58283       20.42255        4.10843
H        100.10306       19.91199        2.06042
H         98.82909       22.68589        2.60911
H         98.23062       21.40117        1.51889
H         98.72655       21.06069        4.55177
H         98.03016       19.87003        3.38475
H         99.44833       19.40781        4.37722
H        100.78204       23.05697        1.11333
H        100.23912       21.68364        0.05311
H         99.24266       23.17950        0.22628
N        103.03947       20.09929        1.92979
C        102.69839       18.72069        2.28518
C        103.86874       18.12342        3.06062
O        104.54038       17.21998        2.58083
C        102.35486       17.94707        0.99622
C        101.88568       16.53418        1.24535
O        101.78553       16.03664        2.49462
O        101.57741       15.83038        0.29780
H        103.84979       20.22281        1.30131
H        101.80730       18.65868        2.93718
H        103.24185       17.92906        0.32621
H        101.53425       18.48386        0.47230
N        104.17245       18.62438        4.28932
C        105.32656       18.22563        5.07301
C        105.34059       16.77532        5.49907
O        106.32065       16.10419        5.20633
H        103.58422       19.37647        4.67648
H        105.35343       18.83835        6.00022
H        106.24993       18.45579        4.49662
N        104.33780       16.24130        6.25900
C        104.45396       14.92559        6.89426
C        103.49858       13.86895        6.36544
O        103.68147       12.72034        6.74468
C        104.36461       15.07870        8.43102
C        103.11218       15.77067        8.90749
O        102.01276       15.28823        8.70332
O        103.20513       16.93505        9.57753
H        103.50545       16.81750        6.45639
H        105.45784       14.49650        6.68211
H        105.23254       15.68812        8.76298
H        104.44680       14.08355        8.92077
N        102.50852       14.12631        5.46401
C        101.71965       13.05426        4.86511
C        100.86293       12.24855        5.83078
O        100.27676       11.27614        5.37883
H        102.35114       15.08887        5.13315
H        102.42276       12.35612        4.35974
H        101.04888       13.47642        4.08564
N        100.70656       12.58821        7.14691
C         99.88317       11.84762        8.10489
C         98.40074       11.85244        7.74289
O         97.63166       11.17795        8.41322
C        100.44787       10.42258        8.35180
C        101.89828       10.44480        8.88749
C        102.06883       11.07538       10.25711
N        103.30850       11.23062       10.77564
O        101.10148       11.44093       10.90862
H        101.17567       13.42464        7.50182
H         99.92009       12.38098        9.07449
H        100.42572        9.84119        7.40699
H         99.81515        9.87985        9.08776
H        102.53371       10.98554        8.16035
H        102.27666        9.40223        8.95202
H        104.14161       10.93388       10.24739
H        103.43648       11.66056       11.70430
N         97.91592       12.67865        6.77150
C         96.50114       12.84113        6.45416
C         96.03132       14.25375        6.80325
O         94.87695       14.56632        6.54294
C         96.26470       12.56866        4.93592
C         96.98246       13.58636        4.02096
C         96.68544       11.14430        4.55280
H         98.56872       13.28696        6.26417
H         95.88056       12.12881        7.04132
H         95.17347       12.65873        4.73831
H         98.08579       13.53183        4.12252
H         96.73230       13.38714        2.95809
H         96.65709       14.62341        4.24853
H         96.45789       10.95450        3.48194
H         97.77409       10.99775        4.70622
H         96.13373       10.40129        5.16514
N         96.88936       15.17749        7.32808
C         96.59233       16.59386        7.44189
C         96.83297       17.09000        8.85385
O         97.87690       16.78495        9.41711
C         97.54364       17.32644        6.48226
C         97.29971       18.80770        6.50193
N         98.26244       19.65343        6.92501
O         96.21771       19.24926        6.14457
H         97.85225       14.90765        7.57280
H         95.55093       16.82347        7.12347
H         97.39520       16.95422        5.44517
H         98.59588       17.10478        6.77166
H         99.18144       19.30569        7.23735
H         98.07599       20.66226        6.94230
N         95.94013       17.92964        9.45710
C         96.18328       18.51125       10.78039
C         94.99851       19.35503       11.25308
O         94.12096       19.65407       10.45269
C         97.42951       19.44948       10.72212
C         98.10136       19.61311       12.05871
C         98.07912       20.83189       12.75527
C         98.79751       18.52102       12.60259
C         98.73284       20.94572       13.98853
C         99.46227       18.64123       13.82272
C         99.42985       19.84969       14.52341
O        100.07300       19.94446       15.70439
H         95.07604       18.15374        8.94169
H         96.33380       17.65488       11.47391
H         97.12617       20.42596       10.27909
H         98.22267       19.06698       10.04978
H         97.54965       21.68569       12.35232
H         98.84011       17.57930       12.06854
H         98.70135       21.88518       14.52534
H        100.00525       17.79299       14.22079
H        100.07605       20.75883       16.22637
N         94.93193       19.82269       12.53470
C         93.93043       20.79355       12.96103
C         94.64051       22.00717       13.54622
O         95.07607       21.92851       14.68689
C         92.93972       20.19828       13.97812
C         92.09445       19.07896       13.35700
C         91.09251       18.55822       14.34598
O         91.50719       17.99331       15.49594
O         89.89733       18.64055       14.11085
H         95.63609       19.51531       13.22200
H         93.31639       21.10511       12.10022
H         92.24878       21.00666       14.30968
H         93.48893       19.81617       14.86680
H         92.74606       18.24231       13.02811
H         91.55755       19.47992       12.46786
N         94.87781       23.15210       12.83844
C         94.55369       23.33002       11.42342
C         93.05307       23.42512       11.20491
O         92.29920       23.50894       12.16628
C         95.25925       24.58574       10.85721
C         96.79431       24.46860       10.94657
C         97.47291       25.72276       10.47940
O         98.35258       25.67994        9.46249
O         97.25957       26.78278       11.04596
H         95.39326       23.90175       13.32557
H         94.94170       22.44816       10.86643
H         94.91222       25.47778       11.42451
H         94.98926       24.72592        9.78747
H         97.13534       23.60464       10.33439
H         97.11635       24.29601       11.99259
N         92.54580       23.36741        9.94369
C         91.12242       23.38626        9.68713
H         90.68099       24.33718       10.05173
H         90.93295       23.29452        8.59662
H         90.63549       22.52927       10.20146
H         93.18643       23.27294        9.14113
Ca        99.42164       27.56529        8.81740
O        100.17013       25.45482       12.45232
H         99.49101       24.76843       12.66992
H        100.96021       25.19899       12.99119
O        102.56242       27.34504       11.40407
H        102.90296       26.44377       11.63215
H        103.37581       27.87427       11.20800
O         99.36323       29.06882       11.92917
H         99.57768       29.98989       11.63563
H        100.04449       28.86242       12.61748
O        101.94601       29.53937        9.28921
H        102.32398       29.52771        8.37414
H        101.24581       30.23881        9.26110

Ca 1.0



