%chk=apoCaM-CA-Ng.loop4.water4.frame600.chk
%nprocshared=20
%mem=10GB
%nosave
#b3lyp/svp scf=(tight,noincore,xqc) Test 
#IOP(5/87=12) Density=Current Pop=(MK,readradii) iop(6/33=2) iop(6/42=6)

apoCaM-CA-Ng.loop4.water4.frame600 

   -3  1 
C         48.12629      120.17460       83.43125
C         48.30141      121.63540       83.71245
O         49.13320      122.26728       83.07667
H         47.08564      119.97984       83.10055
H         48.82775      119.83876       82.63749
H         48.33411      119.59454       84.35548
N         47.54198      122.23778       84.67589
C         47.67696      123.63496       85.08624
C         47.27777      124.63039       84.01007
O         47.40687      125.82287       84.25729
C         49.08783      123.91247       85.62463
C         49.39023      123.05465       86.81333
O         49.69078      123.57415       87.87677
O         49.35063      121.71088       86.71883
H         46.85403      121.66211       85.18487
H         46.97573      123.82641       85.92949
H         49.17293      124.98010       85.92723
H         49.84852      123.72009       84.84969
N         46.70096      124.24157       82.83544
C         46.17414      125.20839       81.87554
C         45.10731      126.08591       82.53023
O         44.52501      125.66598       83.52122
C         45.53340      124.50190       80.63093
C         44.41274      123.49813       81.02481
C         46.61578      123.84618       79.76942
C         43.54174      123.07843       79.84192
H         46.58758      123.24130       82.64157
H         47.02108      125.85312       81.55632
H         45.05740      125.27607       79.99976
H         43.72170      123.97498       81.74892
H         44.83804      122.59133       81.50321
H         47.16187      123.05510       80.32459
H         46.18701      123.40571       78.84763
H         47.32826      124.63324       79.45424
H         42.74559      122.39299       80.20130
H         43.05592      123.97457       79.39872
H         44.12587      122.55227       79.06256
N         44.72976      127.29150       82.01781
C         45.42629      127.98698       80.94422
C         46.72873      128.59946       81.42927
O         47.75484      128.36243       80.80974
C         44.51858      129.01657       80.21347
C         43.84242      130.12805       80.98474
O         43.16728      130.93713       80.36951
O         43.91528      130.23809       82.32105
H         43.93036      127.76357       82.46429
H         45.67779      127.28850       80.12378
H         43.70430      128.44799       79.71338
H         45.13430      129.48728       79.41413
N         46.76151      129.42131       82.51309
C         47.89419      130.26016       82.85386
C         48.05167      131.30965       81.77894
O         47.05958      131.93245       81.42283
H         45.92871      129.51414       83.10294
H         48.81678      129.66039       83.01558
H         47.65748      130.79404       83.79929
N         49.26290      131.57773       81.21941
C         49.41278      132.55223       80.13990
C         48.89425      132.03657       78.79484
O         48.89080      132.81477       77.85253
C         50.87293      133.05989       80.01797
C         51.94457      132.02328       79.78594
O         53.09790      132.38932       79.62863
O         51.67480      130.70546       79.79700
H         50.09238      131.11029       81.61194
H         48.81910      133.45761       80.40304
H         51.13778      133.59948       80.95257
H         50.91247      133.79927       79.18699
N         48.43538      130.76091       78.61388
C         48.00253      130.25061       77.31841
C         49.15984      130.04982       76.34894
O         48.90572      129.79409       75.18123
H         48.38941      130.12190       79.40903
H         47.25236      130.95385       76.89470
H         47.50425      129.26468       77.44496
N         50.45729      130.12738       76.77108
C         51.64629      130.05039       75.92758
C         51.89516      128.68657       75.28975
O         52.86721      128.56849       74.55789
C         51.68422      131.22772       74.93049
C         51.62561      132.56244       75.69803
C         51.76518      133.75686       74.79844
N         52.76635      134.64777       74.99200
O         50.95607      133.93726       73.90105
H         50.63526      130.29200       77.76237
H         52.53273      130.19529       76.58711
H         50.84766      131.16275       74.20299
H         52.64244      131.18897       74.36835
H         52.43128      132.57892       76.46518
H         50.65730      132.64499       76.22075
H         53.45018      134.51993       75.75299
H         52.85477      135.47600       74.38586
N         51.15471      127.58785       75.61678
C         51.49126      126.23155       75.18489
C         51.96454      125.44010       76.39096
O         53.03912      124.85728       76.32113
C         50.28128      125.53827       74.49583
C         49.90205      126.27039       73.20042
C         50.59561      124.06634       74.15362
H         50.36852      127.69146       76.27056
H         52.32678      126.23400       74.44818
H         49.40743      125.54882       75.18415
H         50.75260      126.25573       72.48348
H         49.03273      125.77210       72.71912
H         49.62629      127.32426       73.40757
H         50.81849      123.48170       75.06943
H         49.72169      123.58468       73.66564
H         51.47076      123.99493       73.47244
N         51.21915      125.37115       77.52942
C         51.56512      124.52573       78.66594
C         51.98998      125.35047       79.86638
O         52.00555      126.57465       79.79561
C         50.34313      123.64996       78.99349
C         49.96549      122.79191       77.81185
N         48.80534      122.99701       77.14514
O         50.72699      121.91075       77.44256
H         50.34705      125.91868       77.59361
H         52.43075      123.87038       78.42346
H         49.51228      124.33206       79.25948
H         50.52243      122.98745       79.86516
H         48.16400      123.75445       77.41588
H         48.55742      122.41255       76.33361
N         52.38650      124.71940       81.00802
C         52.87810      125.41556       82.19369
C         53.95945      124.57882       82.89505
O         54.14987      123.42022       82.54261
C         51.67555      125.68054       83.12227
C         52.00072      126.50000       84.34598
C         51.96799      125.90824       85.61762
C         52.32650      127.86234       84.23381
C         52.26698      126.65344       86.75736
C         52.61360      128.61402       85.37968
C         52.58917      128.01168       86.64342
O         52.87445      128.74419       87.73857
H         52.33480      123.68907       81.02868
H         53.34184      126.37684       81.87649
H         51.27872      124.68720       83.41271
H         50.86672      126.20591       82.56714
H         51.72153      124.86573       85.73011
H         52.34640      128.34380       83.26379
H         52.24548      126.17208       87.72697
H         52.85494      129.66536       85.28615
H         52.87065      128.36014       88.62738
N         54.74021      125.11817       83.87335
C         55.80294      124.38928       84.56048
C         55.62291      124.54180       86.07215
O         56.30997      125.37242       86.65381
C         57.16921      124.96656       84.10974
C         58.35215      124.16884       84.69772
C         59.66534      124.82470       84.38653
O         60.46389      125.23390       85.39200
O         60.01942      124.98733       83.23022
H         54.62190      126.11604       84.10680
H         55.82072      123.31824       84.27189
H         57.23615      126.03452       84.41561
H         57.24167      124.92817       83.00015
H         58.34483      123.13420       84.29090
H         58.26659      124.09880       85.80149
N         54.72086      123.84652       86.82062
C         53.81431      122.79234       86.36661
C         54.54745      121.53960       85.90340
O         55.76315      121.46822       86.02188
C         52.85162      122.44123       87.54146
C         53.56826      121.72040       88.71518
C         52.82013      121.69883       90.03355
O         51.60309      121.13656       90.17833
O         53.35400      122.18326       91.01898
H         54.67124      124.12523       87.81304
H         53.21791      123.19139       85.52076
H         52.03491      121.80221       87.16502
H         52.40245      123.39452       87.89484
H         54.53568      122.22325       88.91871
H         53.80107      120.67891       88.40765
N         53.84229      120.49033       85.38988
C         54.44782      119.23709       84.98252
H         55.54594      119.22138       85.14523
H         53.99995      118.40765       85.57051
H         54.24723      119.05903       83.90560
H         52.81967      120.57254       85.28836
Ca        50.29882      120.66340       88.44000
O         49.90809      117.75896       87.88518
H         50.23442      118.17452       87.04742
H         50.72770      117.59702       88.41689
O         46.77217      122.46890       89.51548
H         46.41550      122.70436       88.62226
H         46.14342      122.89079       90.15385
O         48.08568      119.02143       90.83101
H         48.72676      118.26747       90.86551
H         47.40900      118.80328       91.52040
O         49.21722      122.39196       91.51170
H         48.62737      122.20867       92.28547
H         50.00039      122.85692       91.90037

Ca 1.0



