%chk=apoCaM-CA-Ng.loop3.water7.frame1143.chk
%nprocshared=20
%mem=10GB
%nosave
#b3lyp/svp scf=(tight,noincore,xqc) Test 
#IOP(5/87=12) Density=Current Pop=(MK,readradii) iop(6/33=2) iop(6/42=6)

apoCaM-CA-Ng.loop3.water7.frame1143 

   0  1 
C         57.35353       74.39635       61.32476
C         57.05986       73.72107       60.01877
O         57.77232       73.96148       59.05663
H         58.23531       75.06742       61.23146
H         56.47700       74.99673       61.64378
H         57.57478       73.62888       62.09628
N         56.03373       72.82873       59.92524
C         55.71756       72.09332       58.70394
C         54.26488       72.26347       58.26965
O         53.79272       71.43804       57.49939
C         56.11001       70.60867       58.86828
C         55.33697       69.83932       59.90912
O         55.60543       68.66434       60.09878
O         54.34779       70.41085       60.62327
H         55.48415       72.63173       60.77466
H         56.34110       72.45383       57.85638
H         57.19168       70.56584       59.12348
H         55.97963       70.09366       57.89067
N         53.52915       73.36192       58.62467
C         52.17725       73.63300       58.12818
C         52.17081       73.57136       56.60695
O         51.37356       72.84324       56.02840
C         51.13969       72.65210       58.72294
C         51.02062       72.73991       60.25127
C         49.92304       71.80818       60.80116
C         50.24205       70.31331       60.61439
N         49.17036       69.47794       61.15514
H         53.96618       74.08800       59.21158
H         51.89227       74.66484       58.43341
H         51.41112       71.62268       58.41816
H         50.14107       72.89339       58.29411
H         50.74407       73.78405       60.51656
H         51.99240       72.50252       60.73507
H         48.95508       72.05152       60.30959
H         49.81387       72.00612       61.88950
H         51.19498       70.07566       61.13729
H         50.36196       70.06639       59.53949
H         49.03506       69.67278       62.17340
H         48.27971       69.66183       60.63788
H         49.42735       68.47157       61.03304
N         53.11497       74.25076       55.90139
C         53.29027       74.09241       54.46242
C         54.57786       73.33327       54.18537
O         55.31774       73.02122       55.10947
C         53.21631       75.44891       53.72640
C         54.28726       76.42814       54.12670
O         55.10622       76.80941       53.30575
O         54.32400       76.92222       55.37793
H         53.79731       74.81531       56.42519
H         52.47584       73.46065       54.04535
H         52.22477       75.91470       53.91068
H         53.29186       75.26089       52.63361
N         54.87950       72.95205       52.91632
C         56.04784       72.16210       52.58033
C         55.95506       70.77030       53.18748
O         54.94932       70.12196       52.93521
H         54.24406       73.21398       52.14806
H         56.96028       72.72427       52.84417
H         56.06335       72.03040       51.47711
N         56.93319       70.17909       53.94235
C         58.23716       70.75042       54.27074
C         58.71363       70.24086       55.62573
O         58.69480       69.03450       55.82919
C         59.30709       70.34114       53.23573
C         59.01596       70.86657       51.85468
N         59.74714       71.88084       51.33652
O         58.11327       70.37421       51.19560
H         56.77049       69.19584       54.21371
H         58.19572       71.85065       54.28321
H         59.44326       69.23777       53.18929
H         60.27066       70.77789       53.58177
H         60.50293       72.32118       51.88158
H         59.54019       72.24651       50.39577
N         59.25986       71.04873       56.57935
C         59.42343       72.49155       56.44285
C         60.36064       73.06633       57.48543
O         60.96217       72.31380       58.24319
H         59.62066       70.57832       57.42420
H         58.42483       72.97399       56.49919
H         59.89363       72.73093       55.46461
N         60.57320       74.41205       57.55698
C         61.57185       74.97330       58.45870
C         61.24042       76.39799       58.87386
O         60.85572       77.19969       58.03285
C         62.96519       74.93536       57.79465
C         64.04751       75.15614       58.82566
C         64.81923       76.32824       58.84008
C         64.28448       74.16665       59.79666
C         65.80044       76.51205       59.82214
C         65.27104       74.34611       60.76680
C         66.03040       75.52304       60.78643
O         66.98068       75.71208       61.72394
H         60.06216       75.03358       56.91004
H         61.60186       74.34606       59.37727
H         62.99744       75.69784       56.98467
H         63.15785       73.94625       57.32442
H         64.65254       77.10428       58.10452
H         63.70753       73.24966       59.79682
H         66.38230       77.42466       59.83515
H         65.44156       73.56989       61.50251
H         67.16871       75.04981       62.40485
N         61.46856       76.79291       60.15895
C         61.23297       78.14523       60.68413
C         61.94374       79.22552       59.85479
O         62.76012       78.89896       59.00781
C         61.63854       78.17024       62.20554
C         63.16783       77.93002       62.39283
C         61.18517       79.44075       62.94748
C         63.59836       77.77957       63.85306
H         61.82704       76.07228       60.80323
H         60.14031       78.32984       60.59217
H         61.08318       77.33070       62.68145
H         63.74396       78.76249       61.93415
H         63.47337       76.99485       61.88235
H         61.30044       79.31494       64.04279
H         61.79562       80.32104       62.66384
H         60.10819       79.63432       62.75928
H         63.04519       76.94496       64.33354
H         64.68522       77.55421       63.89432
H         63.43028       78.71512       64.42347
N         61.65168       80.54742       60.04753
C         62.26279       81.63716       59.29064
C         61.19180       82.54894       58.70410
O         60.01526       82.34524       58.95942
C         63.18680       82.43903       60.22247
O         62.45086       83.00718       61.27112
H         60.95725       80.80710       60.75679
H         62.88443       81.23663       58.46129
H         63.69765       83.24063       59.64319
H         63.96064       81.75574       60.63747
H         63.07334       83.61353       61.75031
N         61.55682       83.60939       57.92333
C         60.63650       84.61356       57.40006
C         60.00806       85.40282       58.53620
O         58.78934       85.47991       58.62821
C         59.60194       83.99284       56.44638
H         62.55496       83.73753       57.70447
H         61.23067       85.34053       56.80251
H         58.96718       84.79083       56.00485
H         60.11851       83.46010       55.62097
H         58.93510       83.27887       56.96952
N         60.81308       86.02731       59.44854
C         60.34080       86.86394       60.55066
C         59.49044       86.12484       61.57972
O         59.01665       86.77700       62.50046
C         59.60144       88.09421       60.00315
H         61.83500       85.92895       59.34287
H         61.23029       87.25146       61.09645
H         59.33680       88.78404       60.83331
H         60.26214       88.64583       59.30087
H         58.66775       87.81477       59.47542
N         59.26677       84.77817       61.52142
C         58.43991       84.07192       62.49312
C         59.02660       84.23436       63.88244
O         58.34143       84.74568       64.75743
C         58.32197       82.57640       62.09995
C         57.38938       81.74925       63.00747
C         55.92904       82.12410       62.92788
O         55.53173       83.00165       62.17747
O         55.03828       81.45154       63.68053
H         59.69534       84.22598       60.76953
H         57.42460       84.52066       62.46812
H         59.33391       82.11928       62.13121
H         57.95277       82.49352       61.05369
H         57.73266       81.82672       64.06048
H         57.46719       80.68399       62.70086
N         60.30814       83.84961       64.13977
C         60.95188       84.01787       65.42629
H         61.83874       84.67542       65.30582
H         60.27938       84.47663       66.18124
H         61.28551       83.02942       65.80361
H         60.87012       83.43582       63.38223
Ca        55.92336       78.38872       55.99212
O         56.30162       75.51469       57.13626
H         57.21271       75.84117       57.33904
H         56.37075       75.17018       56.21170
O         54.98583       78.76270       58.90554
H         55.61984       79.46623       59.19477
H         55.21064       77.97851       59.46675
O         58.50113       77.62646       54.67729
H         59.24832       77.98363       55.21989
H         58.81644       77.69556       53.74148
O         57.10620       81.21318       56.54613
H         56.86627       81.59897       57.42591
H         56.68752       81.81991       55.88538
O         58.32514       78.74443       57.85946
H         58.20363       77.82702       58.20980
H         58.46141       79.30085       58.66638
O         53.77611       80.48365       56.06955
H         52.83930       80.59842       55.77116
H         54.04195       81.37477       56.40925
O         55.97964       80.25269       53.55993
H         56.79383       79.88112       53.13636
H         55.25223       80.05705       52.91752

Ca 1.0



