%chk=apoCaM-CA-Ng.loop1.water5.frame1004.chk
%nprocshared=20
%mem=10GB
%nosave
#b3lyp/svp scf=(tight,noincore,xqc) Test 
#IOP(5/87=12) Density=Current Pop=(MK,readradii) iop(6/33=2) iop(6/42=6)

apoCaM-CA-Ng.loop1.water5.frame1004 

   0  1 
C         30.99796       18.19923       24.95982
C         30.41953       18.20347       26.34581
O         31.14580       17.96746       27.29885
H         32.08249       17.95730       24.98141
H         30.47706       17.43960       24.33982
H         30.86581       19.19903       24.49497
N         29.09898       18.47777       26.53100
C         28.46263       18.50379       27.84552
C         28.51586       17.12559       28.48814
O         28.04945       16.16771       27.88625
C         27.00672       18.97582       27.71140
C         26.35790       19.11954       29.05519
O         26.86957       19.97834       29.95859
O         25.36643       18.46416       29.33187
H         28.53140       18.69418       25.69630
H         28.99917       19.24851       28.47680
H         26.43647       18.25957       27.07958
H         26.98856       19.97076       27.21639
N         29.11138       16.95455       29.70160
C         29.39338       15.63881       30.25998
C         28.19067       14.93444       30.92420
O         27.91528       13.83378       30.46483
C         30.70190       15.65920       31.08753
C         31.94109       16.17543       30.30996
C         32.27792       15.36030       29.04759
C         33.53769       15.89241       28.34985
N         33.79500       15.15532       27.11185
H         29.52279       17.78111       30.16189
H         29.66389       14.96938       29.41728
H         30.91672       14.63028       31.45082
H         30.59771       16.32571       31.94986
H         32.81243       16.14119       31.00034
H         31.78679       17.23722       30.02141
H         31.44500       15.43300       28.31956
H         32.43091       14.29363       29.32021
H         34.41272       15.79759       29.02955
H         33.40524       16.96891       28.10521
H         34.64936       15.54321       26.65081
H         33.94949       14.14222       27.31989
H         32.98553       15.26002       26.45664
N         27.40705       15.38089       31.96372
C         27.41397       16.68833       32.60664
C         25.99591       17.04980       33.06787
O         25.42697       16.33291       33.88130
C         28.33387       16.69771       33.84078
C         28.35034       18.06615       34.44715
O         28.56530       19.03450       33.73603
O         28.09638       18.24727       35.75664
H         26.64841       14.74187       32.25368
H         27.76450       17.44531       31.87458
H         29.36008       16.44321       33.56489
H         28.00708       15.94610       34.59026
N         25.36967       18.15697       32.58279
C         24.00838       18.53364       32.93180
C         23.83326       19.15167       34.30890
O         22.70274       19.50545       34.61074
H         25.85190       18.72523       31.87673
H         23.33798       17.65523       32.80705
H         23.67072       19.31100       32.21207
N         24.87203       19.37167       35.17369
C         24.72919       20.05439       36.46340
C         24.20266       21.47069       36.24709
O         23.09966       21.76614       36.68801
C         23.81954       19.25359       37.43303
C         24.37243       17.89546       37.73919
O         23.72766       16.89436       37.47135
O         25.56645       17.77839       38.34817
H         25.81828       19.08329       34.90081
H         25.72399       20.13548       36.95185
H         22.79416       19.15097       37.01995
H         23.73468       19.80414       38.39568
N         24.89214       22.42280       35.55470
C         26.24161       22.29150       35.03023
C         27.27134       22.33443       36.13741
O         27.24347       23.27554       36.91761
H         24.42235       23.32794       35.39279
H         26.44679       23.18474       34.40096
H         26.33586       21.40494       34.37019
N         28.25803       21.39491       36.22221
C         29.32579       21.43947       37.22025
C         30.42132       20.41627       36.90312
O         30.23190       19.23749       37.15836
C         28.75058       21.23433       38.65126
C         29.82804       21.24887       39.73921
O         28.05245       20.01387       38.70944
H         28.28394       20.66750       35.50287
H         29.79334       22.44699       37.15760
H         28.05945       22.07962       38.87213
H         27.18167       20.18500       39.15547
H         30.53881       20.40573       39.60815
H         30.38921       22.20587       39.71459
H         29.34958       21.14002       40.73596
N         31.60388       20.82616       36.34618
C         32.78102       19.98726       36.09301
C         33.46585       19.65863       37.40586
O         32.86319       19.02738       38.26163
C         32.48823       18.71510       35.23892
C         31.78061       19.05098       33.90631
C         33.77278       17.90299       34.97954
C         32.56314       19.94432       32.94194
H         31.69135       21.81953       36.08360
H         33.49739       20.60427       35.51008
H         31.80910       18.04277       35.80377
H         30.83534       19.56875       34.13950
H         31.53858       18.10016       33.38350
H         34.21958       17.56024       35.93326
H         33.54208       16.99618       34.38084
H         34.53485       18.50715       34.44595
H         32.75973       20.93814       33.39236
H         33.51984       19.47315       32.64038
H         31.95588       20.10131       32.02569
N         34.73823       20.09965       37.63419
C         35.43817       19.91109       38.90208
C         36.48463       20.99975       39.13562
O         36.80953       21.76403       38.23577
C         36.05981       18.49147       39.02429
C         37.05357       18.17784       37.88858
O         35.06115       17.50418       39.10921
H         35.18906       20.66487       36.89949
H         34.70030       20.07086       39.72026
H         36.62970       18.43767       39.97654
H         34.75185       17.28452       38.19400
H         36.54228       18.19003       36.90201
H         37.87811       18.92072       37.86864
H         37.49311       17.16909       38.04099
N         36.98301       21.17431       40.39010
C         37.87564       22.27025       40.75515
C         39.25422       22.10214       40.14275
O         39.90837       21.09957       40.39119
C         37.97916       22.41475       42.29204
C         36.63261       22.86754       42.88183
O         38.38885       21.20050       42.86844
H         36.63624       20.54780       41.13280
H         37.43481       23.22547       40.39053
H         38.73013       23.20803       42.51488
H         38.53888       21.37476       43.83398
H         35.83084       22.12660       42.68364
H         36.72362       23.00865       43.97865
H         36.33343       23.84157       42.43625
N         39.76415       23.09968       39.36217
C         41.08666       23.12099       38.74946
C         41.21794       22.06076       37.67356
O         41.06359       20.87803       37.94272
C         42.22554       23.09297       39.79488
C         43.59027       23.36435       39.12000
C         44.76415       23.57513       40.09234
C         44.61386       24.85246       40.94068
N         45.81993       25.10916       41.72768
H         39.18135       23.93581       39.20382
H         41.17963       24.11467       38.25566
H         42.26072       22.13150       40.35009
H         42.00869       23.90690       40.51588
H         43.51990       24.27506       38.48493
H         43.83335       22.50669       38.45559
H         45.68151       23.68651       39.47266
H         44.89369       22.68640       40.74656
H         43.74783       24.75824       41.62895
H         44.43666       25.72287       40.26965
H         46.00959       24.30904       42.37317
H         46.63850       25.25428       41.09241
H         45.67998       25.97782       42.29335
N         41.53573       22.44526       36.40776
C         41.66013       21.52210       35.29098
C         40.30617       20.91714       34.93168
O         40.21790       19.69797       34.95966
C         42.33697       22.20394       34.07744
C         43.77729       22.63016       34.42361
C         44.43110       23.33505       33.27325
O         43.91804       24.49220       32.81287
O         45.44441       22.87994       32.76776
H         41.72457       23.44467       36.23897
H         42.34658       20.69412       35.58422
H         41.76013       23.08635       33.73875
H         42.38259       21.48289       33.23154
H         44.36658       21.72649       34.69719
H         43.78923       23.32302       35.29048
N         39.19162       21.63397       34.58746
C         39.06426       23.07776       34.54429
H         38.25457       23.39049       35.23672
H         39.97201       23.61881       34.84347
H         38.79321       23.39365       33.51541
H         38.33803       21.10545       34.34805
Ca        27.95951       16.57634       37.26024
O         28.05855       17.65044       40.75423
H         28.26525       16.97874       41.45159
H         28.11289       18.51994       41.22482
O         30.32153       15.24741       35.96800
H         29.63502       14.59783       36.26418
H         31.08183       15.10343       36.58432
O         31.05494       16.92966       39.26239
H         31.80502       16.39880       39.63105
H         31.19535       16.90588       38.28296
O         26.18891       14.38647       38.16143
H         25.69776       15.06471       37.63453
H         26.11162       13.55790       37.62616
O         28.97915       14.62453       39.99698
H         28.66549       13.97672       39.31769
H         29.96226       14.51007       40.01052

Ca 1.0



