%chk=apoCaM-CA-Ng.loop3.water5.frame388.chk
%nprocshared=20
%mem=10GB
%nosave
#b3lyp/svp scf=(tight,noincore,xqc) Test 
#IOP(5/87=12) Density=Current Pop=(MK,readradii) iop(6/33=2) iop(6/42=6)

apoCaM-CA-Ng.loop3.water5.frame388 

   0  1 
C         25.33466      102.67111       23.52878
C         26.59747      103.38590       23.14893
O         27.48978      103.47449       23.97918
H         24.59999      102.67512       22.69655
H         25.56675      101.61897       23.79503
H         24.87610      103.17558       24.40535
N         26.73849      103.93573       21.90577
C         27.92085      104.66957       21.45874
C         28.10653      105.98871       22.22045
O         29.12366      106.64139       22.02934
C         29.16022      103.74105       21.48098
C         30.33515      104.32519       20.74486
O         30.24085      104.60295       19.55926
O         31.50528      104.51881       21.38160
H         25.96650      103.83201       21.22974
H         27.75703      104.94791       20.39341
H         28.89902      102.79004       20.96672
H         29.45727      103.50117       22.52218
N         27.11514      106.49183       23.01775
C         27.16871      107.78944       23.69027
C         26.90617      107.67977       25.19612
O         26.88809      108.70285       25.86479
C         26.16231      108.73221       22.99121
C         24.68152      108.33709       23.19085
C         23.71910      109.14294       22.30363
C         23.82228      108.73791       20.81907
N         22.84567      109.45909       20.00523
H         26.23442      105.96913       23.09516
H         28.17425      108.24647       23.55786
H         26.43112      108.72323       21.91547
H         26.29684      109.77380       23.35737
H         24.42573      108.51570       24.25766
H         24.50003      107.26542       22.97716
H         23.89695      110.23252       22.43371
H         22.68351      108.91692       22.63908
H         23.62844      107.64495       20.72781
H         24.83667      108.94164       20.41894
H         21.87655      109.26809       20.34892
H         23.04038      110.48571       20.04000
H         22.92123      109.13233       19.01442
N         26.69609      106.46921       25.79441
C         26.41413      106.27204       27.21686
C         27.56604      106.81389       28.05288
O         28.71058      106.60652       27.67582
C         26.16527      104.76259       27.44856
C         25.59310      104.42318       28.79662
O         24.48520      103.91532       28.87309
O         26.29809      104.61947       29.92045
H         26.73697      105.62520       25.21169
H         25.46996      106.80290       27.47227
H         27.09728      104.18610       27.26699
H         25.41450      104.43017       26.69587
N         27.33941      107.58942       29.15411
C         28.40855      108.28660       29.85985
C         29.48231      107.41071       30.48790
O         30.53097      107.95815       30.79703
H         26.36830      107.76172       29.45501
H         27.98833      108.94940       30.64705
H         28.90677      108.94384       29.11385
N         29.31595      106.07541       30.72394
C         30.39212      105.20915       31.21818
C         30.68821      104.06105       30.24920
O         31.57346      103.26850       30.53153
C         30.09392      104.70547       32.64958
C         28.94057      103.74800       32.80955
N         28.64241      103.27242       34.04090
O         28.28516      103.38507       31.84594
H         28.39844      105.65477       30.54054
H         31.33372      105.79332       31.30788
H         29.91320      105.58964       33.29953
H         31.00111      104.18733       33.03119
H         29.19205      103.56060       34.86418
H         27.86390      102.61426       34.17652
N         30.02242      103.93916       29.06624
C         30.26443      102.90913       28.07530
C         29.58568      101.60798       28.42155
O         30.21598      100.56275       28.36243
H         29.32642      104.63980       28.80436
H         31.34901      102.80624       27.85422
H         29.77261      103.23756       27.13273
N         28.26036      101.61190       28.73761
C         27.43582      100.42269       28.90247
C         27.02648      100.26378       30.35334
O         26.46781      101.18152       30.93590
C         26.19241      100.55794       27.99813
C         25.18190       99.46148       28.24315
C         25.48960       98.11538       27.98568
C         23.91769       99.78987       28.76252
C         24.54642       97.11533       28.25046
C         22.98177       98.79093       29.03176
C         23.29348       97.44854       28.77926
O         22.40146       96.47399       29.04683
H         27.79229      102.52365       28.84182
H         27.99208       99.51118       28.59132
H         26.49628      100.56831       26.92875
H         25.71657      101.53832       28.21438
H         26.45834       97.83962       27.58888
H         23.65880      100.82031       28.97371
H         24.79385       96.07937       28.05723
H         22.01744       99.06316       29.44197
H         21.53225       96.66509       29.42795
N         27.26907       99.08252       30.98636
C         26.99626       98.83930       32.39522
C         28.20166       99.30546       33.18629
O         28.01785      100.01823       34.16285
C         26.60847       97.34595       32.63586
C         25.29469       97.03494       31.86521
C         26.42112       97.05875       34.14010
C         24.82203       95.58171       31.95158
H         27.74431       98.33229       30.46035
H         26.11748       99.43535       32.72982
H         27.42758       96.69388       32.25798
H         25.44865       97.26175       30.79377
H         24.47696       97.69027       32.24016
H         25.59669       97.67208       34.56025
H         26.20667       95.98593       34.31877
H         27.34113       97.28107       34.70840
H         25.59763       94.89695       31.55081
H         24.56906       95.29322       32.99162
H         23.89721       95.46354       31.34716
N         29.47374       99.02562       32.77114
C         30.64161       99.57550       33.45284
C         30.90270       98.89883       34.78486
O         31.73382       99.39300       35.53365
C         31.89439       99.47287       32.56815
O         31.67807      100.07600       31.32124
H         29.60933       98.48763       31.90206
H         30.45024      100.65953       33.62918
H         32.14329       98.40430       32.39912
H         32.76696       99.95338       33.06578
H         31.44119      101.02085       31.50176
N         30.22497       97.77238       35.15398
C         30.35166       97.12039       36.44708
C         30.01465       98.10799       37.54729
O         30.78163       98.27094       38.48687
C         31.73484       96.47349       36.60613
H         29.54739       97.35539       34.50423
H         29.59978       96.29987       36.48499
H         32.54255       97.23385       36.59390
H         31.78648       95.91505       37.56466
H         31.91034       95.75715       35.77512
N         28.87266       98.84351       37.44793
C         28.46235       99.84390       38.41864
C         27.08303       99.48709       38.90942
O         26.17335       99.39220       38.09589
C         28.46886      101.22801       37.76750
H         28.26884       98.70486       36.62220
H         29.17090       99.88095       39.27498
H         28.16219      101.99757       38.50782
H         29.49545      101.46855       37.41592
H         27.77930      101.26532       36.89726
N         26.86427       99.22652       40.22944
C         25.58919       98.76298       40.76182
C         25.24080       97.43693       40.10821
O         24.17814       97.29619       39.51689
C         24.47710       99.82974       40.60141
C         24.83445      101.14284       41.31106
C         23.74322      102.15950       41.13236
O         23.97812      103.22136       40.57774
O         22.50097      101.90789       41.58817
H         27.65157       99.30836       40.89074
H         25.71353       98.57069       41.85097
H         23.53486       99.43101       41.03857
H         24.28976      100.03901       39.52710
H         25.78222      101.54732       40.89273
H         24.97865      100.95651       42.39690
N         26.13891       96.41505       40.15689
C         25.90000       95.14251       39.51419
H         25.75335       95.29215       38.42287
H         26.77591       94.47551       39.66326
H         25.00123       94.65879       39.94997
H         27.03523       96.55177       40.64913
Ca        25.41617      103.88594       31.86867
O         25.08480      101.76948       34.29327
H         25.76392      101.64026       33.58546
H         25.55112      101.52616       35.13173
O         25.76667      104.78497       34.86963
H         26.48409      105.46378       34.80396
H         26.06413      104.18131       35.59575
O         22.87868      105.38699       32.46866
H         23.06133      105.43118       31.49623
H         23.39803      106.13751       32.85263
O         26.43043      106.59011       32.22241
H         25.69625      107.22045       32.01473
H         27.05522      107.10577       32.79048
O         23.01518      101.87148       31.86042
H         22.09682      101.81685       32.22643
H         23.44418      101.02284       32.13668

Ca 1.0



