%chk=apoCaM-CA-Ng.loop2.water3.frame833.chk
%nprocshared=20
%mem=10GB
%nosave
#b3lyp/svp scf=(tight,noincore,xqc) Test 
#IOP(5/87=12) Density=Current Pop=(MK,readradii) iop(6/33=2) iop(6/42=6)

apoCaM-CA-Ng.loop2.water3.frame833 

   -2  1 
C         57.00878       74.47625       86.77988
C         57.04468       73.25166       85.91654
O         57.60606       72.24835       86.33384
H         57.54485       75.30279       86.26940
H         55.95677       74.77802       86.96571
H         57.50081       74.28094       87.75731
N         56.43657       73.25676       84.69624
C         56.43403       72.10563       83.80350
C         55.04138       71.51257       83.75540
O         54.45220       71.40033       82.68835
C         56.97704       72.52768       82.41955
C         57.03253       71.37559       81.45098
O         56.40091       71.42062       80.40678
O         57.77217       70.28669       81.73393
H         55.92972       74.10574       84.39954
H         57.09332       71.30250       84.19914
H         58.00521       72.93051       82.53854
H         56.33507       73.33621       82.00222
N         54.45728       71.09287       84.91331
C         53.17099       70.41417       84.95337
C         52.09996       71.33355       85.52311
O         52.44568       72.39012       86.03446
C         53.34087       69.11854       85.76770
H         54.94789       71.25497       85.80668
H         52.86005       70.16831       83.91639
H         52.41519       68.52217       85.86155
H         54.10903       68.47682       85.28519
H         53.68128       69.35811       86.79772
N         50.76108       71.07489       85.40752
C         50.18871       69.89574       84.75872
C         49.51197       70.24987       83.44587
O         49.37549       71.42081       83.12197
C         49.28531       69.11162       85.73417
C         48.06251       69.85810       86.19459
O         48.17055       70.99534       86.90702
O         46.95667       69.39875       85.96677
H         50.11569       71.79539       85.75989
H         50.98532       69.20350       84.45302
H         49.87988       68.83066       86.63018
H         48.96094       68.17056       85.23984
N         49.17718       69.24813       82.58234
C         48.68602       69.45923       81.22952
C         47.50020       68.56375       80.95107
O         47.65741       67.62206       80.18760
H         49.37813       68.27512       82.86067
H         49.50463       69.14862       80.54495
H         48.46258       70.52285       81.00654
N         46.28375       68.73336       81.53431
C         45.93715       69.85828       82.38262
C         45.82720       71.13415       81.56347
O         45.13513       71.13610       80.55483
C         44.61764       69.57167       83.12503
C         44.22803       70.74177       84.02869
N         43.19266       70.32964       84.97423
O         45.36909       71.20396       84.69664
H         45.56032       68.01916       81.35047
H         46.70980       69.96200       83.17241
H         44.77979       68.66819       83.75493
H         43.78205       69.36919       82.42102
H         42.38593       69.92502       84.44882
H         42.82572       71.17976       85.45477
N         46.43752       72.27850       81.98724
C         46.37845       73.54026       81.26836
C         45.49711       74.57283       81.94683
O         45.42395       75.67708       81.42671
H         46.94593       72.27018       82.88171
H         45.96835       73.39811       80.24558
H         47.41405       73.92818       81.15928
N         44.74439       74.28318       83.05194
C         43.77241       75.21130       83.62621
C         44.02379       75.47965       85.09704
O         44.52984       74.62557       85.81021
C         42.34089       74.65706       83.46350
C         41.93002       74.57137       81.99323
O         42.25467       73.38263       84.05094
H         44.79866       73.34647       83.46682
H         43.80649       76.19078       83.09902
H         41.63607       75.36777       83.96114
H         41.40169       73.34046       84.55540
H         40.89083       74.18755       81.91809
H         41.96330       75.58227       81.53251
H         42.60359       73.89283       81.42926
N         43.62913       76.67466       85.61533
C         43.73611       77.03904       87.02328
C         42.62816       76.31608       87.78399
O         41.47357       76.55293       87.45126
C         43.56440       78.59383       87.17097
C         43.65100       79.10302       88.63586
C         44.56051       79.37330       86.28076
C         45.04058       79.01284       89.27138
H         43.21060       77.35587       84.96417
H         44.74747       76.77021       87.39701
H         42.54335       78.85392       86.81044
H         42.92330       78.55378       89.27039
H         43.35462       80.17512       88.65082
H         45.61060       79.12272       86.53466
H         44.42292       79.15017       85.20468
H         44.40528       80.46678       86.39987
H         45.38721       77.96549       89.31326
H         45.78022       79.62571       88.71674
H         44.99843       79.42354       90.29971
N         42.87918       75.45516       88.82070
C         41.79367       74.83141       89.59846
C         41.73891       75.36940       91.01338
O         40.74837       75.13381       91.68927
C         41.90603       73.30002       89.68732
C         42.47377       72.70767       88.45541
O         41.94810       72.86132       87.36411
O         43.64949       72.07420       88.57195
H         43.85799       75.26945       89.07926
H         40.82450       75.07342       89.11091
H         40.92121       72.84981       89.94047
H         42.61905       73.03484       90.50010
N         42.78364       76.07197       91.54224
C         42.73891       76.71280       92.84560
C         44.12459       77.28287       93.17895
O         44.66417       78.00813       92.35808
C         41.68175       77.83542       92.78792
C         41.71482       78.72387       93.99674
C         42.52246       79.87178       93.97318
C         40.96524       78.42586       95.14447
C         42.58697       80.71025       95.08270
C         41.02657       79.27499       96.25467
C         41.83808       80.41464       96.22341
H         43.64311       76.18649       90.99317
H         42.44687       75.96524       93.60880
H         40.65918       77.42229       92.65281
H         41.87574       78.45994       91.88820
H         43.10991       80.10998       93.09442
H         40.33724       77.54360       95.17828
H         43.21885       81.58770       95.05298
H         40.44684       79.05028       97.13979
H         41.88832       81.07016       97.08157
N         44.75954       77.03126       94.37033
C         46.04781       77.60988       94.74951
C         47.25562       77.20148       93.91592
O         48.34745       77.64298       94.25043
C         46.24219       77.13966       96.19556
C         44.81633       77.07639       96.68940
C         44.13263       76.39505       95.51119
H         45.93571       78.71744       94.72439
H         46.62765       76.09325       96.20105
H         46.92920       77.77612       96.79370
H         44.67424       76.56573       97.66421
H         44.43290       78.12152       96.76931
H         44.35976       75.30650       95.48839
H         43.04334       76.57992       95.60128
N         47.16313       76.37891       92.82867
C         48.32611       75.97995       92.03425
C         49.08667       77.15218       91.41376
O         50.15886       76.91084       90.87594
C         47.91503       74.98673       90.92052
C         46.98674       75.62835       89.87188
C         46.60143       74.64008       88.81962
O         45.91773       73.53430       89.15832
O         46.88432       74.84352       87.65121
H         46.24721       75.98699       92.57875
H         49.02461       75.45485       92.72363
H         47.40724       74.11378       91.38728
H         48.82822       74.61140       90.40692
H         47.49909       76.48925       89.38984
H         46.05759       75.99546       90.34942
N         48.60389       78.42999       91.42729
C         49.31938       79.55721       90.86480
H         50.29925       79.26813       90.43034
H         48.70345       80.02227       90.06757
H         49.50193       80.30672       91.66333
H         47.68529       78.63611       91.84085
Ca        44.84820       71.76341       86.77263
O         47.13564       71.07112       89.63727
H         46.88850       70.39161       90.31257
H         48.04572       71.36460       89.89406
O         47.40441       73.55838       85.16121
H         47.60017       74.48172       84.86321
H         48.20790       73.04163       84.90634
O         45.04519       69.22316       88.18003
H         45.50835       68.36891       88.36661
H         44.54261       69.42469       89.00848

Ca 1.0



