%chk=apoCaM-CA-Ng.loop3.water2.frame540.chk
%nprocshared=20
%mem=10GB
%nosave
#b3lyp/svp scf=(tight,noincore,xqc) Test 
#IOP(5/87=12) Density=Current Pop=(MK,readradii) iop(6/33=2) iop(6/42=6)

apoCaM-CA-Ng.loop3.water2.frame540 

   0  1 
C         68.70730       16.72865       76.42128
C         67.44158       16.14779       76.97421
O         66.47334       16.00279       76.24110
H         69.52918       15.98925       76.53907
H         68.59721       16.96263       75.34144
H         68.96908       17.65416       76.97337
N         67.40110       15.73928       78.27045
C         66.25352       15.04787       78.83647
C         65.07377       15.99588       79.03820
O         65.16255       16.91511       79.83985
C         66.67861       14.35270       80.14661
C         65.67885       13.37360       80.68270
O         65.97882       12.68885       81.79899
O         64.62168       13.16360       80.11126
H         68.25973       15.83641       78.83577
H         65.97612       14.23612       78.13017
H         66.91323       15.11300       80.92201
H         67.60101       13.76383       79.94603
N         63.92910       15.81139       78.32375
C         62.71120       16.61281       78.46363
C         62.09509       16.45901       79.84162
O         61.64457       17.45109       80.39809
C         61.70388       16.17924       77.37238
C         60.31087       16.82601       77.48747
C         59.44602       16.42609       76.28476
C         57.98859       16.87196       76.44995
N         57.19803       16.48994       75.27921
H         63.92304       15.04376       77.63398
H         62.92924       17.69021       78.28562
H         61.56369       15.07668       77.41154
H         62.15195       16.44229       76.38804
H         60.38741       17.93460       77.53361
H         59.82842       16.46118       78.42099
H         59.45252       15.32096       76.17544
H         59.87864       16.87870       75.36498
H         57.93623       17.97422       76.58796
H         57.56060       16.38260       77.35393
H         56.20032       16.76168       75.43243
H         57.55770       16.98253       74.42946
H         57.24640       15.45522       75.13094
N         62.02656       15.24155       80.44307
C         61.35328       15.00923       81.71458
C         62.32568       14.89508       82.87845
O         61.86072       14.73043       83.99829
C         60.38348       13.80798       81.55966
C         61.00814       12.53156       81.04206
O         61.90214       11.84997       81.77097
O         60.67167       12.08589       79.95685
H         62.48425       14.44340       79.98216
H         60.72569       15.88650       81.98473
H         59.61151       14.11569       80.82167
H         59.86612       13.59785       82.52002
N         63.67794       15.02634       82.71730
C         64.63331       14.97467       83.81723
C         64.70171       13.63267       84.52025
O         65.48130       13.51896       85.45585
H         64.06173       15.21650       81.78400
H         64.37679       15.76222       84.55994
H         65.64881       15.19791       83.42340
N         63.90032       12.58794       84.16100
C         63.85022       11.31994       84.85671
C         64.00967       10.11534       83.87429
O         64.93990       10.40494       82.84468
C         62.49950       11.21931       85.61680
C         62.40820       12.19650       86.76885
N         62.26995       11.74767       88.04075
O         62.45308       13.39853       86.55850
H         63.24702       12.69581       83.39332
H         64.67524       11.26723       85.60496
H         62.35965       10.21028       86.04289
H         61.65650       11.38590       84.91157
H         62.22794       10.73877       88.24841
H         62.20710       12.41054       88.82753
N         64.48111        8.99287       84.71750
C         64.71336        7.70183       84.08517
C         65.98382        7.70526       83.30237
O         66.99671        8.18278       83.79741
H         63.79370        8.80648       85.47869
H         63.83073        7.36430       83.50051
H         64.87348        6.96284       84.90257
N         66.01918        7.11551       82.08353
C         67.23171        7.05178       81.28430
C         67.52777        8.41283       80.67388
O         66.84719        9.37509       80.98746
C         67.13129        5.89671       80.26039
C         66.86889        4.58091       80.96733
C         65.70673        3.84373       80.68572
C         67.77545        4.08512       81.92492
C         65.45310        2.64011       81.35155
C         67.51622        2.88571       82.59299
C         66.35269        2.15876       82.30844
O         66.08920        1.00079       82.94697
H         65.16862        6.63969       81.74767
H         68.09106        6.79775       81.94120
H         68.07943        5.79136       79.69605
H         66.32985        6.10782       79.52821
H         64.99332        4.20133       79.95431
H         68.68146        4.62616       82.16483
H         64.55297        2.08281       81.12593
H         68.21985        2.52426       83.33286
H         66.68356        0.63703       83.61892
N         68.58637        8.56499       79.83482
C         69.10158        9.82854       79.31829
C         68.09698       10.63477       78.50351
O         67.08318       11.05750       79.04303
C         69.66681       10.74843       80.45034
C         70.61454       11.83917       79.86699
C         70.36301        9.97402       81.58236
C         71.94027       11.30303       79.29430
H         69.12699        7.72623       79.58245
H         69.94799        9.53999       78.66716
H         68.81202       11.26934       80.93962
H         70.87063       12.55747       80.67451
H         70.08856       12.41104       79.07221
H         71.18971        9.34361       81.20122
H         70.75262       10.68720       82.34032
H         69.63789        9.31735       82.10581
H         72.55210       12.14789       78.91842
H         72.53233       10.78729       80.07823
H         71.79000       10.60770       78.44552
N         68.38726       11.01411       77.22960
C         67.61256       12.04778       76.55022
C         66.17164       11.66108       76.24057
O         65.43408       12.54090       75.81617
C         68.34679       12.52825       75.28925
O         69.61594       13.00363       75.65282
H         69.26068       10.67384       76.79808
H         67.57451       12.92089       77.23411
H         67.77207       13.35822       74.81958
H         68.44825       11.68382       74.57197
H         70.05682       13.30105       74.81606
N         65.68472       10.39375       76.40679
C         64.29629       10.07489       76.09602
C         63.33789       10.75867       77.14254
O         63.28590        9.99088       78.34273
C         64.10445        8.55456       75.99570
H         66.31912        9.63700       76.69901
H         64.12188       10.45230       75.06925
H         63.07300        8.28801       75.71921
H         64.77577        8.14756       75.20869
H         64.34202        8.05284       76.94727
N         61.94322       10.98896       76.67090
C         61.73954       11.41287       75.25110
C         61.42457       10.18681       74.38885
O         61.03912        9.17972       74.96479
C         60.54530       12.37896       75.14238
H         61.55966       11.71376       77.32078
H         62.63107       11.96623       74.89071
H         60.37430       12.69978       74.09415
H         59.61664       11.89249       75.51294
H         60.73415       13.28977       75.74626
N         61.49798       10.14290       73.02101
C         61.90417       11.21585       72.12203
C         63.13420       10.79033       71.33417
O         64.16016       11.44799       71.44375
C         60.72719       11.53684       71.17012
C         61.06194       12.60825       70.11917
C         59.87489       12.88241       69.23960
O         59.34608       14.11939       69.18575
O         59.39095       11.98985       68.56072
H         61.23777        9.24947       72.57260
H         62.15728       12.13593       72.68683
H         59.86497       11.88320       71.78011
H         60.41447       10.60987       70.64043
H         61.89744       12.26518       69.47094
H         61.37108       13.54498       70.62952
N         63.09720        9.71909       70.49085
C         64.23539        9.33304       69.68373
H         65.09814        9.07602       70.33319
H         63.97812        8.44797       69.06288
H         64.51700       10.16611       69.00381
H         62.23162        9.16806       70.39687
Ca        64.16093       10.39366       80.55292
O         62.02697        8.59939       81.73521
H         61.48028        8.42716       80.92810
H         61.41835        9.07682       82.35303
O         64.08668        7.70102       79.56824
H         63.97066        6.72396       79.66036
H         64.94949        7.81889       79.09722

Ca 1.0



