%chk=apoCaM-CA-Ng.loop2.water4.frame345.chk
%nprocshared=20
%mem=10GB
%nosave
#b3lyp/svp scf=(tight,noincore,xqc) Test 
#IOP(5/87=12) Density=Current Pop=(MK,readradii) iop(6/33=2) iop(6/42=6)

apoCaM-CA-Ng.loop2.water4.frame345 

   -2  1 
C         61.31294       84.82664       63.58726
C         61.13061       85.42475       64.95196
O         61.58975       84.83075       65.91569
H         62.39682       84.71647       63.37330
H         60.83972       83.82383       63.55272
H         60.85811       85.46242       62.79931
N         60.48292       86.61357       65.11701
C         60.30080       87.22682       66.43003
C         59.41850       86.34751       67.29005
O         58.26681       86.13051       66.93713
C         59.67883       88.62942       66.30952
C         60.57689       89.55502       65.53764
O         61.82044       89.81712       65.98441
O         60.18442       90.07458       64.50548
H         60.12991       87.10224       64.27985
H         61.30003       87.33878       66.90787
H         59.53098       89.05782       67.32443
H         58.68586       88.55838       65.81122
N         59.92506       85.75920       68.40957
C         59.17599       84.80717       69.21689
C         59.71479       83.41519       68.95737
O         60.66821       83.27317       68.20755
C         59.26269       85.20038       70.69654
H         60.91551       85.91982       68.65181
H         58.10473       84.79446       68.91952
H         60.32016       85.20104       71.03854
H         58.84176       86.21821       70.84254
H         58.68584       84.49624       71.33196
N         59.13012       82.32824       69.52554
C         59.53799       80.95518       69.24050
C         60.21267       80.33456       70.46411
O         60.44295       79.13316       70.46899
C         58.29037       80.15015       68.81284
C         57.51564       80.80979       67.69329
O         58.00703       80.92802       66.44236
O         56.39574       81.23845       67.92110
H         58.35096       82.47123       70.18699
H         60.27114       80.91118       68.40523
H         57.61950       80.07736       69.69667
H         58.57084       79.11856       68.51033
N         60.59372       81.10966       71.52575
C         61.22286       80.62503       72.74520
C         62.63025       80.06366       72.60764
O         63.21931       79.80496       73.64762
H         60.40856       82.12246       71.50531
H         60.56556       79.87920       73.23956
H         61.31166       81.49695       73.43231
N         63.24405       79.83625       71.40789
C         64.61243       79.32833       71.29003
C         65.44195       80.29143       70.45285
O         64.88991       81.24839       69.92493
C         64.60385       77.92118       70.65112
C         63.89111       76.89899       71.51165
N         64.54556       75.80708       71.97589
O         62.70872       77.04868       71.78144
H         62.74196       80.01907       70.53070
H         65.09586       79.25352       72.28903
H         65.65124       77.58519       70.49589
H         64.10958       77.96286       69.65650
H         65.53958       75.64827       71.75602
H         64.05472       75.11026       72.55647
N         66.78914       80.11298       70.30510
C         67.61553       81.01180       69.51000
C         68.35641       80.25635       68.43655
O         67.72395       79.53033       67.68158
H         67.25051       79.32791       70.78966
H         68.33187       81.53792       70.17569
H         66.99862       81.78660       69.00880
N         69.70731       80.41018       68.28483
C         70.47525       79.69298       67.26426
C         70.03191       80.01136       65.83721
O         70.47040       79.30480       64.93872
C         72.00617       79.92034       67.40330
C         72.45318       81.36174       67.09579
O         72.45995       79.50478       68.66896
H         70.19786       81.04143       68.93382
H         70.28891       78.60991       67.43707
H         72.51463       79.27227       66.65552
H         72.24873       80.21449       69.32890
H         71.99226       82.08821       67.79596
H         73.55788       81.43566       67.18150
H         72.17629       81.64104       66.05815
N         69.15694       81.02005       65.54639
C         68.59983       81.23505       64.21746
C         67.13974       80.85848       64.30604
O         66.41697       81.41618       65.12345
C         68.80981       82.68833       63.72106
C         70.30351       83.10705       63.72247
C         68.18796       82.87744       62.32196
C         71.22486       82.26010       62.83569
H         68.80343       81.62567       66.30109
H         69.08321       80.56037       63.47927
H         68.28330       83.37967       64.41634
H         70.68839       83.06473       64.76276
H         70.37555       84.16484       63.38798
H         67.09590       82.67746       62.34628
H         68.33019       83.92146       61.97253
H         68.64055       82.18480       61.58169
H         71.24482       81.20351       63.16879
H         70.91577       82.30464       61.77189
H         72.26070       82.65279       62.90628
N         66.66439       79.84494       63.53738
C         65.34158       79.26513       63.72343
C         65.32474       77.80067       63.24725
O         64.26220       77.27259       62.96090
C         64.30409       80.17884       63.02846
C         62.87660       79.92225       63.43581
O         62.56655       78.98727       64.35474
O         61.98600       80.60456       62.95451
H         67.30486       79.43629       62.84189
H         65.12466       79.23732       64.81527
H         64.42031       80.08993       61.92588
H         64.50591       81.23567       63.30668
N         66.48446       77.06995       63.18934
C         66.58606       75.69870       62.69891
C         66.18663       75.63184       61.23456
O         66.75869       76.37849       60.45139
C         68.05546       75.21065       62.78207
C         68.60981       75.20649       64.18474
C         69.69393       76.03808       64.51970
C         68.06463       74.36158       65.16468
C         70.21916       76.02535       65.81431
C         68.59557       74.35004       66.45825
C         69.67096       75.18188       66.78310
H         67.35972       77.49709       63.51564
H         65.95899       75.03565       63.32703
H         68.68182       75.87014       62.13881
H         68.13415       74.17900       62.37417
H         70.13294       76.69731       63.78076
H         67.23638       73.70697       64.92487
H         71.05357       76.66750       66.06477
H         68.17519       73.69304       67.20805
H         70.08158       75.17090       67.78417
N         65.26509       74.73983       60.75715
C         64.96619       74.60419       59.34215
C         64.04585       75.70319       58.83733
O         63.82428       75.76216       57.63560
C         64.32565       73.21573       59.25849
C         63.56167       73.14917       60.56738
C         64.56709       73.74917       61.55032
H         65.89885       74.60590       58.73429
H         63.73848       73.01533       58.33693
H         65.13735       72.45482       59.32700
H         62.69706       73.84559       60.47818
H         63.18008       72.14717       60.85625
H         64.01879       74.18417       62.41356
H         65.30887       72.99611       61.89722
N         63.45145       76.59250       59.68489
C         62.58021       77.66081       59.21241
C         63.37445       78.77718       58.54535
O         62.75397       79.64589       57.94810
C         61.77634       78.26520       60.38078
C         60.85925       77.23748       61.06391
C         60.11995       77.85880       62.21311
O         59.37461       78.80740       62.02717
O         60.27026       77.36429       63.45645
H         63.58844       76.48531       60.69692
H         61.85686       77.23037       58.48370
H         61.14485       79.09902       60.00125
H         62.49196       78.67390       61.12038
H         61.45360       76.38315       61.45089
H         60.12378       76.84709       60.32878
N         64.73520       78.85470       58.64639
C         65.52129       79.92376       58.06486
H         66.27740       79.49102       57.37761
H         64.90178       80.64825       57.49650
H         66.04635       80.47294       58.87529
H         65.25598       78.15040       59.18529
Ca        59.86253       79.94765       65.61868
O         58.55532       82.32225       63.44017
H         58.17478       82.79773       64.22092
H         58.54748       82.99495       62.71342
O         57.16335       78.89646       64.18176
H         56.55031       79.67274       64.13710
H         56.85081       78.29097       63.46340
O         61.98433       81.93136       65.89428
H         62.26669       81.67817       66.80883
H         61.03655       82.20292       65.98927
O         60.05856       77.20714       66.52611
H         60.40948       77.77697       67.25631
H         59.07836       77.34805       66.54962

Ca 1.0



