%chk=apoCaM-CA-Ng.loop2.water3.frame1310.chk
%nprocshared=20
%mem=10GB
%nosave
#b3lyp/svp scf=(tight,noincore,xqc) Test 
#IOP(5/87=12) Density=Current Pop=(MK,readradii) iop(6/33=2) iop(6/42=6)

apoCaM-CA-Ng.loop2.water3.frame1310 

   -2  1 
C         30.83740       38.32765       92.77621
C         30.92932       39.44920       93.78160
O         31.37484       39.17582       94.88612
H         30.39248       38.61763       91.80752
H         31.85111       37.91809       92.58642
H         30.19962       37.52100       93.19566
N         30.51285       40.72827       93.53991
C         29.95927       41.20269       92.27343
C         29.19464       42.51432       92.47828
O         29.31565       43.43095       91.67597
C         31.09135       41.32618       91.20493
C         32.15392       42.31633       91.62060
O         33.14097       42.50455       90.92945
O         31.97548       43.01788       92.75099
H         30.56208       41.39209       94.32930
H         29.17958       40.48137       91.94830
H         30.66332       41.63906       90.22826
H         31.58742       40.34746       91.05834
N         28.34958       42.64328       93.54135
C         27.47000       43.78933       93.74551
C         28.15567       45.14519       93.91351
O         27.41886       46.12251       93.91014
C         26.58053       43.54023       94.97417
H         28.27627       41.85169       94.19958
H         26.81542       43.85461       92.84816
H         27.20855       43.47539       95.89053
H         25.84256       44.35950       95.10574
H         26.02258       42.58650       94.86063
N         29.50462       45.31682       94.09100
C         30.10070       46.65084       94.25655
C         31.11531       46.96496       93.16601
O         31.39551       46.11712       92.32973
C         30.62464       46.84560       95.70047
C         31.71127       45.90243       96.14623
O         32.92945       45.92897       95.56987
O         31.50300       45.13493       97.07315
H         30.12161       44.49353       94.14055
H         29.31772       47.42905       94.13082
H         29.74888       46.71964       96.37631
H         30.99187       47.88448       95.83327
N         31.63231       48.22565       93.06356
C         32.48724       48.65193       91.96455
C         33.86391       48.03612       91.99131
O         34.19666       47.31979       92.92474
H         31.33594       48.94259       93.74231
H         32.62403       49.75412       92.01076
H         31.98223       48.40985       91.00448
N         34.72173       48.28128       90.95798
C         36.07254       47.73194       90.87803
C         37.09814       48.83401       90.65275
O         36.72443       49.98315       90.45122
C         36.12586       46.70818       89.72926
C         35.14057       45.58963       89.96877
N         34.10674       45.38292       89.11995
O         35.27172       44.87077       90.94832
H         34.38405       48.85215       90.16635
H         36.33671       47.21587       91.82669
H         37.14191       46.26813       89.63877
H         35.89110       47.22756       88.77369
H         33.97071       45.98298       88.29377
H         33.42990       44.62603       89.29473
N         38.43029       48.54927       90.69748
C         39.44842       49.57161       90.47719
C         40.86137       49.08561       90.76903
O         41.03006       47.94213       91.17064
H         38.70789       47.58087       90.91680
H         39.25419       50.42389       91.16373
H         39.37568       49.92346       89.42501
N         41.95788       49.89031       90.64006
C         41.94476       51.26853       90.14895
C         42.82625       51.44428       88.91181
O         42.81710       52.53778       88.36067
C         42.44028       52.22705       91.26124
C         41.51831       52.21759       92.48231
O         43.74025       51.86208       91.65405
H         42.86715       49.49584       90.92775
H         40.91991       51.57220       89.85482
H         42.44460       53.26430       90.84815
H         44.18413       52.67961       92.00041
H         41.47257       51.20615       92.93760
H         41.90259       52.92960       93.24390
H         40.49536       52.53552       92.19045
N         43.65272       50.45669       88.44918
C         44.59162       50.63391       87.34420
C         44.36640       49.52462       86.31750
O         44.37567       48.36809       86.71718
C         46.04750       50.60422       87.89186
C         46.24851       51.77561       88.89110
C         47.06138       50.69811       86.73508
C         47.61832       51.79805       89.56609
H         43.68647       49.54868       88.93118
H         44.45104       51.63122       86.89683
H         46.21034       49.63846       88.42094
H         45.49993       51.69511       89.70410
H         46.08781       52.74587       88.37027
H         46.91499       49.86220       86.02624
H         46.94671       51.65449       86.18270
H         48.10166       50.61122       87.10353
H         47.78883       50.84877       90.11553
H         48.43262       51.95840       88.83211
H         47.65161       52.64036       90.28907
N         44.16232       49.74587       84.98390
C         44.18509       51.04930       84.32575
C         44.89752       51.00266       82.97504
O         45.32328       49.94883       82.52619
C         42.74856       51.61673       84.26649
C         41.74745       50.65968       83.68246
O         41.85715       50.26646       82.53304
O         40.71535       50.23386       84.43780
H         43.95294       48.92321       84.39554
H         44.80566       51.76769       84.88881
H         42.71922       52.57388       83.70679
H         42.43116       51.84087       85.30841
N         45.06697       52.16417       82.28384
C         45.72456       52.28302       80.98588
C         47.24554       52.33527       81.13491
O         47.69874       53.14696       81.93218
C         45.30861       53.64009       80.36104
C         45.82733       53.79454       78.95412
C         45.26658       53.03505       77.91442
C         46.87229       54.68939       78.66842
C         45.74414       53.16820       76.60849
C         47.35472       54.81131       77.36194
C         46.78973       54.05303       76.33267
H         44.66613       53.02083       82.69470
H         45.36048       51.48464       80.30609
H         45.69294       54.46178       81.00776
H         44.20225       53.74543       80.33732
H         44.45702       52.34463       78.11687
H         47.32435       55.27848       79.45686
H         45.30401       52.58345       75.81153
H         48.16793       55.49241       77.14768
H         47.16180       54.15078       75.32144
N         48.11506       51.64285       80.32990
C         47.76114       50.68875       79.28658
C         47.24827       49.39095       79.87123
O         46.18523       48.92318       79.49058
C         49.08340       50.46537       78.52606
C         49.80328       51.78259       78.75544
C         49.52025       51.99117       80.23635
H         47.04234       51.16000       78.58670
H         49.70415       49.69076       79.03068
H         48.95694       50.16384       77.46408
H         50.88133       51.77740       78.48747
H         49.28759       52.58204       78.17489
H         50.11764       51.26815       80.83565
H         49.75821       53.02968       80.55405
N         47.97172       48.77944       80.84995
C         47.58238       47.54497       81.51628
C         47.80757       46.35982       80.58653
O         48.90894       46.26216       80.06237
C         48.43193       47.34606       82.78918
C         48.17060       48.46022       83.81676
C         48.99483       48.25401       85.05222
O         49.79879       49.10328       85.40219
O         48.83795       47.14005       85.79207
H         48.83491       49.24576       81.16621
H         46.54188       47.64601       81.86272
H         49.51337       47.31901       82.52650
H         48.15696       46.37276       83.25310
H         47.09543       48.45829       84.09761
H         48.41129       49.45474       83.38289
N         46.88553       45.38384       80.32909
C         45.56183       45.25946       80.90907
H         44.80599       45.24900       80.09777
H         45.50270       44.29719       81.46079
H         45.29061       46.05252       81.62092
H         47.16121       44.62715       79.68349
Ca        33.17301       44.54914       93.83230
O         33.79793       41.46984       94.66896
H         32.88835       41.57823       95.04229
H         34.28637       40.94974       95.35482
O         36.27329       45.80437       94.48683
H         37.02091       45.36993       94.96871
H         36.58322       46.73209       94.33330
O         36.15970       42.93194       93.22603
H         36.24435       42.04913       93.66560
H         37.08533       43.16701       92.96510

Ca 1.0



