%chk=apoCaM-CA-Ng.loop4.water4.frame145.chk
%nprocshared=20
%mem=10GB
%nosave
#b3lyp/svp scf=(tight,noincore,xqc) Test 
#IOP(5/87=12) Density=Current Pop=(MK,readradii) iop(6/33=2) iop(6/42=6)

apoCaM-CA-Ng.loop4.water4.frame145 

   -3  1 
C         45.10968       39.10323        9.41920
C         44.98309       38.10841       10.53238
O         44.18068       37.20177       10.41499
H         46.14380       39.07580        9.01639
H         44.40412       38.86053        8.59438
H         44.88447       40.12151        9.79630
N         45.77120       38.21133       11.63933
C         45.78340       37.27055       12.75797
C         46.23694       35.89424       12.30572
O         45.51029       34.93316       12.46311
C         44.50545       37.35315       13.64548
C         43.13432       37.04508       13.08268
O         42.74877       35.78564       12.79467
O         42.29221       37.92903       13.06479
H         46.44406       38.99224       11.67736
H         46.58583       37.60184       13.45567
H         44.47289       38.40192       14.01659
H         44.65055       36.70534       14.53739
N         47.48506       35.76626       11.75671
C         48.15437       34.55390       11.26815
C         48.47651       33.55724       12.37828
O         49.65481       33.39278       12.66659
C         47.43877       33.91383       10.04910
C         48.20073       32.68026        9.48007
C         47.23109       34.96751        8.94684
C         49.60980       32.96093        8.93989
H         48.03596       36.63457       11.66638
H         49.14120       34.90453       10.88958
H         46.43832       33.55169       10.36833
H         47.60097       32.24944        8.65138
H         48.28348       31.89945       10.26467
H         46.75651       34.50515        8.06406
H         46.57308       35.78610        9.30411
H         48.19333       35.41657        8.62613
H         50.28122       33.34088        9.73608
H         50.04844       32.01702        8.55297
H         49.58329       33.68553        8.10076
N         47.51835       32.84766       13.04230
C         47.84717       31.92056       14.11565
C         48.56483       30.68531       13.56443
O         49.70841       30.49551       13.95428
C         46.61294       31.60520       14.99671
C         46.05647       32.82195       15.70198
O         46.54434       33.93133       15.54530
O         45.00139       32.67936       16.52593
H         46.53054       32.96667       12.80319
H         48.55014       32.43306       14.81443
H         46.91312       30.87667       15.78024
H         45.78605       31.17814       14.40931
N         48.04164       29.80105       12.65613
C         46.69287       29.86247       12.10476
C         46.38200       28.75106       11.10355
O         47.25817       27.94142       10.83524
H         48.66401       29.03468       12.35889
H         46.55065       30.83908       11.60852
H         46.00684       29.72234       12.94075
N         45.16388       28.60038       10.48565
C         43.97525       29.44656       10.61705
C         44.29658       30.84926       10.10086
O         44.32687       31.77869       10.89412
C         43.37034       29.37724       12.04454
C         41.95446       29.88686       12.13949
O         41.31502       29.83892       13.32291
O         41.36257       30.30707       11.16018
H         45.07202       27.80462        9.83374
H         43.17478       29.00244        9.98927
H         43.96542       29.94226       12.77560
H         43.33474       28.30985       12.35344
N         44.60937       31.09356        8.78854
C         44.42408       30.13693        7.70821
C         45.70323       29.63621        7.09825
O         46.78938       30.07615        7.44595
H         44.93418       32.03345        8.52371
H         43.78067       30.58996        6.92334
H         43.89477       29.23688        8.05459
N         45.61036       28.59925        6.22117
C         46.75864       27.86974        5.69785
C         47.54483       28.62547        4.63984
O         48.62269       28.15943        4.29677
C         46.31201       26.47363        5.19683
C         45.32891       26.49633        4.00515
C         44.78234       25.11470        3.74333
N         44.95062       24.50891        2.54670
O         44.15914       24.54049        4.62474
H         44.66399       28.23248        6.04695
H         47.44182       27.68301        6.55724
H         45.81942       25.97256        6.06016
H         47.20150       25.86629        4.92029
H         45.84192       26.90323        3.10847
H         44.45304       27.14173        4.21257
H         45.45804       24.97464        1.78382
H         44.56189       23.56868        2.38053
N         47.07713       29.76878        4.05787
C         47.83253       30.51352        3.05050
C         47.18937       30.43814        1.67323
O         47.75318       31.02173        0.75710
C         48.04407       31.99281        3.48833
C         48.86254       32.07565        4.78349
C         46.72695       32.77202        3.64416
H         46.14157       30.11326        4.31452
H         48.84368       30.06918        2.91659
H         48.63920       32.50106        2.69624
H         48.32234       31.59960        5.62816
H         49.84107       31.56733        4.64857
H         49.06085       33.13788        5.04300
H         46.14199       32.75182        2.70051
H         46.10205       32.36206        4.46406
H         46.95137       33.83328        3.88121
N         46.04431       29.73052        1.43012
C         45.44732       29.63953        0.09898
C         44.05832       30.25204        0.04412
O         43.58198       30.48086       -1.05985
C         45.37858       28.16595       -0.34633
C         46.73271       27.50088       -0.32471
N         47.73780       27.93973       -1.11594
O         46.92311       26.54880        0.41590
H         45.59294       29.21464        2.19712
H         46.06233       30.20671       -0.63243
H         44.95914       28.09403       -1.37345
H         44.69448       27.61943        0.34225
H         47.59985       28.73578       -1.75411
H         48.65833       27.47619       -1.09181
N         43.31914       30.48594        1.16846
C         41.96024       31.02278        1.13343
C         41.80220       32.12267        2.16123
O         42.64025       32.19298        3.03873
C         40.98087       29.90260        1.55020
C         41.20129       28.62556        0.78029
C         40.98224       28.56741       -0.60377
C         41.64871       27.47601        1.45656
C         41.20823       27.37549       -1.30014
C         41.87630       26.28944        0.75965
C         41.65710       26.23278       -0.61918
O         41.88095       25.07798       -1.27685
H         43.68840       30.20263        2.08589
H         41.71224       31.39512        0.11565
H         39.92666       30.23826        1.44275
H         41.14920       29.68933        2.63131
H         40.63926       29.44277       -1.14081
H         41.83131       27.49772        2.52443
H         41.03596       27.34166       -2.36797
H         42.22528       25.41463        1.29410
H         41.74009       24.99361       -2.23020
N         40.65891       32.87362        2.20140
C         40.15754       33.65969        3.33748
C         40.97046       34.89784        3.74286
O         40.44618       35.99833        3.64046
C         39.88465       32.69048        4.51074
C         39.03664       33.30378        5.63203
C         38.62657       32.24701        6.62169
O         37.96953       31.28447        6.25597
O         38.95270       32.36651        7.91963
H         40.00128       32.76215        1.41390
H         39.15846       34.03910        3.01978
H         40.83109       32.28328        4.92780
H         39.30645       31.83834        4.08668
H         38.10847       33.73636        5.20128
H         39.60554       34.11131        6.14134
N         42.22029       34.79488        4.27210
C         43.01927       35.90012        4.79716
C         43.37885       36.94642        3.74787
O         43.94483       37.96323        4.12822
C         44.34820       35.35318        5.40165
C         44.19828       34.22775        6.44942
C         43.57723       34.66651        7.73442
O         44.20475       34.36751        8.88250
O         42.47740       35.19257        7.75833
H         42.60061       33.86843        4.37980
H         42.42363       36.40257        5.58814
H         44.94602       36.18009        5.84541
H         44.93407       34.92656        4.56017
H         45.20289       33.81429        6.66403
H         43.62319       33.36369        6.07507
N         43.11549       36.78091        2.42010
C         43.47106       37.78673        1.44279
H         44.56922       37.95463        1.45329
H         43.17211       37.45119        0.42727
H         42.94796       38.73971        1.67150
H         42.66709       35.92245        2.07378
Ca        43.32219       34.74892       10.89585
O         40.43693       33.54751       12.20967
H         40.54045       33.02638       13.04501
H         39.67678       34.15597       12.38962
O         40.20370       36.03156       10.20843
H         41.07477       36.34019        9.85345
H         39.83326       35.45481        9.49388
O         41.61073       32.70596        9.24895
H         40.90045       32.13455        9.62671
H         41.10907       33.42337        8.79145
O         43.34824       32.78231       13.65551
H         43.36818       33.53630       14.29665
H         43.21198       31.98116       14.22072

Ca 1.0



