%chk=apoCaM-CA-Ng.loop2.water2.frame853.chk
%nprocshared=20
%mem=10GB
%nosave
#b3lyp/svp scf=(tight,noincore,xqc) Test 
#IOP(5/87=12) Density=Current Pop=(MK,readradii) iop(6/33=2) iop(6/42=6)

apoCaM-CA-Ng.loop2.water2.frame853 

   -2  1 
C         68.42025       48.55332       90.34458
C         67.77655       48.16948       89.04637
O         67.49874       46.99646       88.83831
H         69.39900       49.03964       90.15102
H         67.75975       49.26271       90.88618
H         68.58305       47.65919       90.98364
N         67.50681       49.12438       88.11143
C         66.87920       48.81798       86.82811
C         65.39196       48.44190       86.98729
O         64.76539       48.10327       85.99429
C         67.06914       50.01776       85.86844
C         66.82301       49.70930       84.41042
O         66.96576       50.59407       83.58222
O         66.51236       48.46611       83.99289
H         67.80198       50.09372       88.30967
H         67.44403       47.96582       86.38635
H         68.13063       50.34775       85.92481
H         66.42623       50.86143       86.19985
N         64.77024       48.44541       88.20807
C         63.39668       48.00387       88.43986
C         62.63993       49.02436       89.29421
O         63.21209       49.44706       90.29037
C         63.45018       46.68484       89.21421
H         65.30275       48.70848       89.04670
H         62.89109       47.76716       87.48893
H         63.99126       45.92051       88.61645
H         63.97297       46.81156       90.18640
H         62.42230       46.31112       89.40573
N         61.34293       49.42018       89.09176
C         60.44022       48.97119       88.03110
C         59.64228       50.14035       87.46458
O         59.76647       51.25240       87.95954
C         59.52512       47.83474       88.54520
C         58.61778       48.23359       89.67137
O         59.14318       48.65804       90.82863
O         57.40954       48.12331       89.55916
H         60.94009       50.03692       89.81560
H         61.01466       48.55632       87.18791
H         60.16178       46.99921       88.90512
H         58.91006       47.44708       87.70620
N         58.83982       49.96140       86.37526
C         58.14062       51.05287       85.71163
C         56.72650       50.67548       85.31398
O         56.49129       50.56931       84.11859
H         58.81021       49.03095       85.93148
H         58.70077       51.25254       84.77222
H         58.15115       51.99471       86.29735
N         55.70810       50.44741       86.19298
C         55.79611       50.57275       87.64014
C         55.58584       52.02918       88.02962
O         54.49925       52.55089       87.81665
C         54.72031       49.65005       88.26547
C         54.73486       49.51657       89.76419
N         53.82845       48.70688       90.35841
O         55.55997       50.10615       90.44393
H         54.79886       50.16617       85.78984
H         56.78593       50.20211       87.97420
H         54.86959       48.62666       87.85598
H         53.71071       49.99866       87.95383
H         53.13296       48.19533       89.79574
H         53.81838       48.58084       91.37767
N         56.60517       52.76583       88.55547
C         56.48416       54.18250       88.86982
C         55.69105       54.48329       90.12754
O         55.50468       55.65764       90.41128
H         57.53076       52.33007       88.65355
H         56.03958       54.70966       87.99694
H         57.49905       54.60451       89.03250
N         55.22573       53.49905       90.94887
C         54.47768       53.75324       92.17780
C         55.23571       53.22784       93.39288
O         56.31125       52.66423       93.25137
C         53.06705       53.11546       92.06284
C         52.24001       53.80106       90.97426
O         53.15668       51.74703       91.76473
H         55.40995       52.51919       90.70882
H         54.34788       54.84431       92.34877
H         52.49248       53.25495       93.00590
H         53.44948       51.29362       92.59460
H         51.22841       53.34441       90.92804
H         52.12452       54.88136       91.20810
H         52.72248       53.69469       89.98023
N         54.70563       53.39778       94.63770
C         55.32432       52.94385       95.87857
C         54.45034       51.82957       96.42657
O         53.27113       52.04844       96.66478
C         55.47056       54.15646       96.84569
C         55.88575       53.78485       98.29299
C         56.43744       55.19850       96.24836
C         57.24943       53.11473       98.43278
H         53.79123       53.86637       94.71980
H         56.33772       52.52656       95.68682
H         54.47239       54.63935       96.93917
H         55.11914       53.11118       98.73219
H         55.89419       54.71278       98.90631
H         56.51338       56.08412       96.91405
H         57.45220       54.76979       96.10673
H         56.07862       55.54797       95.25788
H         57.25498       52.15280       97.88924
H         58.06584       53.76664       98.06231
H         57.44234       52.91685       99.50731
N         54.97124       50.57946       96.58402
C         54.18374       49.39454       96.91678
C         54.63405       48.77345       98.23174
O         54.28134       47.63242       98.50369
C         54.33275       48.39785       95.75376
C         53.88805       49.02794       94.46555
O         52.61244       49.43356       94.31121
O         54.69348       49.20448       93.56709
H         55.97494       50.43329       96.39683
H         53.10163       49.63195       97.01811
H         53.72133       47.48706       95.93179
H         55.39975       48.09399       95.66736
N         55.33257       49.50608       99.14094
C         55.74483       49.02909      100.45362
C         57.21775       49.36535      100.65234
O         57.55146       50.52752      100.45255
C         54.92218       49.78704      101.51705
C         55.30565       49.35766      102.91085
C         56.09143       50.20141      103.71241
C         54.91037       48.10414      103.40971
C         56.49039       49.79187      104.98635
C         55.30265       47.70294      104.69121
C         56.09625       48.54432      105.47630
H         55.52959       50.49554       98.92805
H         55.54587       47.94208      100.57442
H         53.83053       49.63143      101.37156
H         55.11245       50.87582      101.38721
H         56.41572       51.16550      103.34085
H         54.30443       47.43902      102.80653
H         57.11048       50.44093      105.59040
H         54.99832       46.73706      105.07316
H         56.40820       48.22958      106.46340
N         58.15733       48.48046      101.11137
C         59.50117       48.89992      101.47138
C         60.47028       48.72891      100.30726
O         61.55996       48.20539      100.50172
C         59.81367       47.97676      102.65288
C         59.20976       46.66549      102.16320
C         57.87553       47.13831      101.58425
H         59.53535       49.96301      101.79856
H         60.88085       47.93690      102.95807
H         59.21563       48.31887      103.52976
H         59.84660       46.28734      101.33339
H         59.11810       45.86664      102.92918
H         57.49624       46.45512      100.79544
H         57.14316       47.21191      102.40877
N         60.13974       49.15937       99.05771
C         61.06242       49.06846       97.93359
C         62.19551       50.08162       98.03536
O         63.11215       50.00312       97.22880
C         60.31943       49.23924       96.59388
C         59.66813       50.62336       96.40022
C         59.00091       50.65698       95.06563
O         59.39342       51.42472       94.20183
O         58.04095       49.76061       94.77608
H         59.19274       49.51803       98.89693
H         61.48985       48.03992       97.92718
H         59.53739       48.44969       96.52965
H         61.04121       49.06377       95.76399
H         60.44551       51.41656       96.44702
H         58.91089       50.82337       97.17642
N         62.18061       51.08608       98.96141
C         63.21237       52.09735       99.06028
H         64.02550       51.95107       98.31928
H         62.75887       53.09648       98.88814
H         63.65239       52.07349      100.07844
H         61.39355       51.17502       99.61887
Ca        57.93058       49.28872       92.60176
O         58.22643       52.03421       91.20281
H         59.06863       52.45629       91.50499
H         58.51401       51.32253       90.57847
O         56.43948       46.65940       93.26071
H         55.46439       46.59204       93.41764
H         56.53593       46.59973       92.27710

Ca 1.0



