%chk=apoCaM-CA-Ng.loop2.water4.frame1007.chk
%nprocshared=20
%mem=10GB
%nosave
#b3lyp/svp scf=(tight,noincore,xqc) Test 
#IOP(5/87=12) Density=Current Pop=(MK,readradii) iop(6/33=2) iop(6/42=6)

apoCaM-CA-Ng.loop2.water4.frame1007 

   -2  1 
C         30.87420       38.02215       44.04180
C         30.28331       36.65787       43.77566
O         30.16028       36.33130       42.60420
H         31.86944       38.07323       43.55080
H         30.22164       38.80139       43.59746
H         31.04420       38.27826       45.09922
N         29.91839       35.76099       44.74191
C         29.94510       35.97996       46.18835
C         28.60421       35.58723       46.80839
O         27.70259       35.18102       46.08732
C         31.16322       35.25435       46.80684
C         31.04946       33.76399       46.77191
O         30.86358       33.18084       45.71613
O         31.13696       33.04943       47.90789
H         29.60165       34.83523       44.41318
H         30.08350       37.04721       46.42255
H         31.28980       35.56900       47.86447
H         32.07570       35.56754       46.25473
N         28.39780       35.71890       48.15055
C         27.11805       35.50651       48.82674
C         26.57577       34.07384       48.80817
O         25.51719       33.88389       49.39237
C         26.07087       36.49999       48.29605
H         29.17734       36.06094       48.73199
H         27.26759       35.76026       49.90075
H         25.13752       36.43653       48.89542
H         26.45945       37.53752       48.38296
H         25.81355       36.30217       47.23618
N         27.22485       33.01400       48.23028
C         26.71388       31.63882       48.30647
C         27.60186       30.78947       49.20382
O         28.46848       31.35087       49.86246
C         26.41763       31.04294       46.90544
C         27.52903       30.77685       45.91348
O         27.26927       30.89826       44.72664
O         28.66199       30.12448       46.25027
H         28.13340       33.16019       47.77052
H         25.72334       31.62064       48.81120
H         25.66732       31.70283       46.41439
H         25.89639       30.07480       47.04344
N         27.42066       29.43951       49.32843
C         28.19821       28.62998       50.25290
C         29.08844       27.64059       49.54108
O         29.92836       28.05670       48.75818
H         26.70018       28.96109       48.77037
H         27.50352       28.11895       50.95340
H         28.87045       29.25905       50.87346
N         29.02554       26.31518       49.85007
C         30.00308       25.33410       49.38481
C         29.95716       25.13535       47.88017
O         28.90786       24.80477       47.34533
C         29.79228       23.99406       50.12349
C         30.90400       23.00554       49.84710
N         31.73234       22.60512       50.84118
O         31.06033       22.56296       48.71890
H         28.31278       26.01110       50.53165
H         31.01259       25.69368       49.68864
H         28.81066       23.54437       49.85887
H         29.78023       24.21242       51.21394
H         31.62696       22.96864       51.79974
H         32.49253       21.93550       50.65107
N         31.09859       25.26606       47.14659
C         31.18378       24.94746       45.73409
C         31.10690       26.20048       44.88956
O         31.94188       27.06729       45.09995
H         31.98039       25.48973       47.63245
H         30.48560       24.13159       45.47836
H         32.18252       24.49436       45.54744
N         30.21328       26.39433       43.87351
C         29.16875       25.46438       43.45895
C         29.65520       24.65637       42.27025
O         29.71628       23.44116       42.39386
C         27.83752       26.20458       43.17484
C         27.25701       26.82377       44.45206
O         28.02732       27.20789       42.21006
H         30.33018       27.25091       43.30926
H         28.93402       24.73925       44.26052
H         27.10899       25.44893       42.79611
H         27.13901       27.40190       41.81199
H         27.06624       26.03234       45.20836
H         27.95080       27.57605       44.88220
H         26.29042       27.32102       44.22238
N         30.03541       25.24765       41.09709
C         30.55218       24.50671       39.94520
C         29.50717       23.49198       39.45969
O         29.75523       22.29881       39.56181
C         31.94198       23.85857       40.30273
C         32.95051       24.88629       40.89186
C         32.58212       23.12892       39.10050
C         33.38655       25.99773       39.93140
H         29.97834       26.27263       41.01211
H         30.73868       25.21630       39.11103
H         31.78722       23.09786       41.09743
H         33.86433       24.34156       41.21713
H         32.51674       25.35568       41.80057
H         31.96277       22.28912       38.73535
H         32.73793       23.81860       38.24684
H         33.55933       22.69233       39.39865
H         33.90734       25.57962       39.04576
H         32.52090       26.60563       39.60072
H         34.10350       26.66777       40.45083
N         28.29448       23.84068       38.93432
C         27.78838       25.19748       38.76448
C         28.22918       25.85640       37.46124
O         28.80227       26.93476       37.54154
C         26.25200       25.27214       38.99689
C         25.32300       24.42259       38.15705
O         23.99623       24.52374       38.36030
O         25.72997       23.62461       37.33196
H         27.66857       23.06291       38.68053
H         28.17242       25.83377       39.58517
H         25.94483       26.33373       38.87194
H         26.05559       24.98943       40.05402
N         27.97318       25.31362       36.23349
C         28.21337       26.01588       34.97478
C         26.89339       26.11858       34.21119
O         26.32632       25.07695       33.90270
C         29.29838       25.29697       34.15178
C         29.59384       26.03185       32.86091
C         28.79239       25.82672       31.72271
C         30.66739       26.93678       32.78523
C         29.06086       26.51237       30.53426
C         30.92727       27.62687       31.59600
C         30.12586       27.41364       30.47139
H         27.56686       24.37331       36.17297
H         28.61940       27.02552       35.17823
H         29.03488       24.23857       33.93614
H         30.21754       25.27786       34.77826
H         27.96396       25.13112       31.75111
H         31.29470       27.11862       33.64872
H         28.44232       26.34519       29.66164
H         31.74968       28.32878       31.54593
H         30.32983       27.94638       29.55124
N         26.32656       27.31674       33.86020
C         26.88966       28.62813       34.14081
C         26.80830       28.95994       35.62081
O         26.29754       28.16969       36.40127
C         26.07211       29.56767       33.24923
C         24.71443       28.90029       33.24860
C         25.08891       27.42470       33.11467
H         27.95159       28.68969       33.81518
H         26.09312       30.64125       33.53447
H         26.46269       29.47938       32.20858
H         24.27098       29.06129       34.25720
H         23.99856       29.26494       32.48143
H         24.26987       26.80180       33.53488
H         25.29224       27.13441       32.05959
N         27.40035       30.09750       36.07724
C         27.57335       30.39319       37.49642
C         28.61688       31.49802       37.67278
O         28.31481       32.52423       38.26454
C         26.22222       30.69562       38.19751
C         25.42459       31.85043       37.56572
C         24.20036       32.15517       38.38208
O         24.04688       33.37478       38.93368
O         23.34285       31.30362       38.55437
H         27.85195       30.71460       35.38435
H         28.00883       29.50350       38.00189
H         26.43521       30.92751       39.26497
H         25.58378       29.78659       38.18445
H         25.12198       31.58080       36.53130
H         26.03836       32.77095       37.51523
N         29.89614       31.37812       37.20582
C         30.44490       30.21949       36.52359
H         31.32372       29.84591       37.08819
H         29.73556       29.37757       36.42983
H         30.77291       30.51487       35.50491
H         30.54119       32.17039       37.34954
Ca        30.05610       31.12200       47.67747
O         32.73588       28.51632       48.02486
H         32.21284       27.83367       47.53902
H         33.20368       28.00954       48.73453
O         32.16159       30.16818       45.32642
H         32.98311       30.16261       44.77360
H         31.44527       29.86903       44.71198
O         31.97159       30.51648       50.35648
H         32.82798       30.02406       50.42343
H         32.14173       31.37132       50.82597
O         33.69907       31.47543       47.71252
H         34.14210       30.77970       48.25959
H         34.25242       31.53613       46.89398

Ca 1.0



