%chk=apoCaM-CA-Ng.loop2.water4.frame1407.chk
%nprocshared=20
%mem=10GB
%nosave
#b3lyp/svp scf=(tight,noincore,xqc) Test 
#IOP(5/87=12) Density=Current Pop=(MK,readradii) iop(6/33=2) iop(6/42=6)

apoCaM-CA-Ng.loop2.water4.frame1407 

   -2  1 
C         56.44253       79.90730      103.65623
C         56.24432       79.91387      102.16438
O         57.09736       80.45016      101.47233
H         57.39081       80.41973      103.92669
H         55.60558       80.44310      104.15089
H         56.49655       78.86288      104.02914
N         55.16119       79.34706      101.55633
C         54.07691       78.65712      102.25679
C         52.71730       79.31666      102.05986
O         51.79164       78.89853      102.74252
C         54.02418       77.17080      101.82643
C         53.73343       76.95297      100.35919
O         53.53346       77.88864       99.60528
O         53.70925       75.71186       99.85037
H         55.12938       79.40230      100.52925
H         54.26434       78.67360      103.34914
H         53.24699       76.64037      102.41893
H         55.00593       76.70529      102.05829
N         52.49789       80.31966      101.15438
C         51.19808       80.96777      101.00067
C         50.53628       80.68687       99.65630
O         49.39734       81.10399       99.49441
C         51.37372       82.47725      101.19655
H         53.26638       80.64597      100.55161
H         50.49143       80.59946      101.77529
H         50.39720       83.00182      101.13119
H         51.81878       82.68354      102.19305
H         52.05126       82.88791      100.41543
N         51.16743       80.02361       98.64096
C         50.55165       79.79666       97.33332
C         50.64099       78.33874       96.89279
O         51.21044       77.51465       97.59342
C         51.20734       80.74348       96.30495
C         52.69533       80.55732       96.17806
O         53.15924       79.49941       95.78697
O         53.52524       81.57168       96.48601
H         52.14559       79.73403       98.75903
H         49.47042       80.05614       97.36140
H         51.00947       81.78720       96.63280
H         50.73919       80.62043       95.30614
N         50.07974       77.96621       95.70593
C         50.13058       76.62752       95.13648
C         51.52604       76.19893       94.72515
O         52.49685       76.87725       95.02571
H         49.56436       78.67544       95.16391
H         49.51432       76.63489       94.21071
H         49.68630       75.88539       95.83472
N         51.68084       75.06083       93.98937
C         52.97773       74.52963       93.56147
C         53.77935       75.49904       92.70322
O         53.27390       76.54862       92.32748
C         52.77989       73.22149       92.74543
C         52.14181       73.47710       91.38908
N         52.82760       73.23204       90.24601
O         51.00772       73.92645       91.32194
H         50.82654       74.53532       93.74823
H         53.56287       74.30296       94.47707
H         52.16721       72.49452       93.31937
H         53.77042       72.74575       92.58815
H         53.79150       72.86860       90.27071
H         52.39954       73.42324       89.32742
N         55.03316       75.15050       92.28775
C         55.76886       75.91882       91.30335
C         56.17639       77.29189       91.79035
O         56.03654       77.58029       92.96987
H         55.44668       74.26185       92.60682
H         55.11762       76.00322       90.40989
H         56.68864       75.36844       91.01146
N         56.67247       78.23119       90.93438
C         56.77316       78.03128       89.48929
C         57.82489       76.99272       89.11730
O         57.70813       76.40481       88.05163
C         57.06851       79.38004       88.77305
C         57.01834       79.27494       87.23994
O         56.16138       80.37028       89.19337
H         56.90896       79.15685       91.32644
H         55.77696       77.69857       89.12384
H         58.08641       79.71784       89.06590
H         55.24394       80.04888       88.99054
H         57.77935       78.56897       86.85311
H         56.01158       78.93748       86.91050
H         57.22377       80.26789       86.78888
N         58.91467       76.77049       89.90986
C         60.04321       75.92953       89.51797
C         60.19402       74.75989       90.49411
O         60.20770       75.00722       91.69144
C         61.33765       76.80001       89.48412
C         61.21253       78.01780       88.52684
C         62.59311       75.97680       89.13558
C         60.96002       77.67128       87.05263
H         58.98986       77.27019       90.80862
H         59.89045       75.54702       88.49823
H         61.50190       77.20686       90.50691
H         62.14934       78.61330       88.58684
H         60.38597       78.67283       88.87263
H         62.53382       75.53344       88.12263
H         63.49669       76.61995       89.17564
H         62.73604       75.15970       89.87024
H         60.90330       78.60912       86.46191
H         61.77886       77.05417       86.63177
H         59.99865       77.13800       86.91967
N         60.38770       73.46272       90.08954
C         60.53027       73.06431       88.69044
C         61.37999       71.82170       88.48915
O         61.63256       71.07356       89.42382
C         59.14345       72.86050       88.02939
C         58.37902       71.71428       88.64521
O         58.02472       71.75012       89.94419
O         58.06969       70.74822       87.96537
H         60.55066       72.75817       90.82575
H         61.10254       73.84445       88.16305
H         59.28334       72.65732       86.94498
H         58.52423       73.77461       88.11818
N         61.80040       71.53071       87.22480
C         62.37695       70.25920       86.82457
C         63.72076       70.43334       86.12761
O         63.78228       71.23368       85.20277
C         61.35203       69.61314       85.87615
C         61.71271       68.19803       85.52022
C         62.73227       67.91525       84.59470
C         61.02125       67.13972       86.12900
C         63.05603       66.59098       84.29199
C         61.35254       65.81885       85.82950
C         62.36898       65.54358       84.91167
H         61.59501       72.20896       86.47332
H         62.45950       69.58179       87.69285
H         61.18583       70.21735       84.95612
H         60.38610       69.60628       86.42915
H         63.27217       68.71363       84.10202
H         60.23581       67.33815       86.84846
H         63.84033       66.37778       83.57784
H         60.82050       65.01093       86.31298
H         62.62258       64.51849       84.68059
N         64.82032       69.66080       86.41867
C         64.90043       68.60262       87.42168
C         64.71440       69.11718       88.82700
O         63.91062       68.56744       89.56756
C         66.31633       68.03250       87.24815
C         66.54987       68.24582       85.76991
C         66.01506       69.66423       85.59591
H         64.15838       67.81136       87.17190
H         67.06374       68.67019       87.77306
H         66.43435       66.98838       87.61066
H         67.59774       68.09875       85.43280
H         65.88958       67.54290       85.21062
H         66.73212       70.41061       86.00467
H         65.81778       69.85712       84.51907
N         65.40701       70.21189       89.24355
C         65.24588       70.78334       90.56971
C         65.91258       69.86588       91.58824
O         67.12159       69.70693       91.48716
C         65.87701       72.19233       90.62928
C         65.16318       73.16507       89.67221
C         65.77909       74.53205       89.72740
O         66.25363       75.03210       88.71980
O         65.79636       75.22152       90.88390
H         66.03678       70.67605       88.57100
H         64.16997       70.93751       90.75119
H         66.95791       72.13602       90.36938
H         65.78333       72.58530       91.66590
H         64.09251       73.23950       89.95614
H         65.21433       72.79060       88.62736
N         65.26135       69.20547       92.59292
C         63.83666       69.21065       92.86520
H         63.23249       69.80874       92.16793
H         63.45892       68.16791       92.81197
H         63.66205       69.59800       93.88999
H         65.83177       68.62210       93.22512
Ca        53.48361       75.64601       97.60534
O         56.50554       75.20571       98.57117
H         56.69388       74.37771       98.06207
H         56.20477       74.88635       99.45851
O         53.22765       72.84647       96.75396
H         52.97553       73.04807       97.69032
H         54.14031       73.21934       96.65544
O         55.79096       78.99639       97.82774
H         56.65483       79.46872       97.72472
H         55.14048       79.71269       98.03760
O         55.89628       76.16267       95.59604
H         55.89110       77.14448       95.72371
H         56.84228       75.90132       95.72633

Ca 1.0



