%chk=apoCaM-CA-Ng.loop1.water3.frame1441.chk
%nprocshared=20
%mem=10GB
%nosave
#b3lyp/svp scf=(tight,noincore,xqc) Test 
#IOP(5/87=12) Density=Current Pop=(MK,readradii) iop(6/33=2) iop(6/42=6)

apoCaM-CA-Ng.loop1.water3.frame1441 

   0  1 
C         42.43962      101.34994       17.55899
C         42.98238      102.74180       17.69087
O         43.72762      103.17346       16.82680
H         41.33093      101.38296       17.52325
H         42.81509      100.86470       16.63260
H         42.75925      100.74283       18.43243
N         42.64942      103.49727       18.77278
C         43.14762      104.84971       19.02096
C         44.00834      104.90649       20.28173
O         44.35854      105.99605       20.71383
C         41.96400      105.83928       19.08942
C         41.00879      105.64483       20.24254
O         41.19870      104.68397       21.16795
O         40.04927      106.39084       20.35002
H         42.02073      103.07441       19.47206
H         43.78571      105.19430       18.17919
H         41.39510      105.76503       18.13710
H         42.37076      106.87213       19.15846
N         44.41450      103.76370       20.90420
C         45.21427      103.72829       22.12279
C         46.55644      104.44846       21.99311
O         46.84671      105.21870       22.89816
C         45.38423      102.28074       22.63930
C         44.00909      101.67678       23.00256
C         44.10919      100.26914       23.59343
C         42.70201       99.73641       23.91349
N         42.75829       98.39346       24.48630
H         44.14888      102.86042       20.49185
H         44.64799      104.25654       22.92465
H         46.00388      102.30377       23.56325
H         45.90334      101.65253       21.88360
H         43.36174      101.62480       22.10323
H         43.51251      102.33573       23.74940
H         44.71659      100.30018       24.52425
H         44.60243       99.59329       22.86165
H         42.09522       99.70888       22.98024
H         42.19837      100.41923       24.63443
H         43.21013       97.73397       23.81228
H         43.29404       98.40901       25.38413
H         41.78390       98.06564       24.67903
N         47.42285      104.35954       20.93703
C         47.21557      103.64013       19.68409
C         46.74827      104.64666       18.62821
O         46.58307      105.80888       18.97512
C         48.52894      102.92171       19.27471
C         49.62473      103.88828       18.89353
O         49.37637      104.75212       17.89482
O         50.70353      103.88719       19.46126
H         48.24841      104.97981       20.97313
H         46.43676      102.86263       19.79798
H         48.32843      102.28551       18.38723
H         48.86218      102.25195       20.09763
N         46.54783      104.30331       17.31997
C         46.10022      105.28343       16.33184
C         47.14707      105.59190       15.29321
O         48.19992      104.97763       15.27425
H         46.72876      103.33676       17.01017
H         45.85021      106.24983       16.81640
H         45.17960      104.92669       15.82893
N         46.91419      106.60062       14.40882
C         47.85345      107.02907       13.37198
C         47.16542      106.93120       12.01372
O         45.96626      106.68658       11.98860
C         48.28926      108.47796       13.70178
C         49.01875      108.49486       15.01519
O         48.50095      109.00407       15.99577
O         50.21805      107.88870       15.13086
H         46.02512      107.11950       14.49365
H         48.74045      106.36351       13.36168
H         47.37507      109.11064       13.76665
H         48.95190      108.92753       12.94493
N         47.80492      107.07330       10.81647
C         49.22520      107.28274       10.59780
C         50.06386      106.11438       11.06177
O         49.78067      104.98704       10.68190
H         47.22588      107.00095        9.96447
H         49.56661      108.24209       11.02669
H         49.38666      107.36629        9.50115
N         51.17609      106.33064       11.81697
C         52.12571      105.27354       12.15678
C         51.64641      104.45849       13.34429
O         51.10365      105.02575       14.27744
C         53.52588      105.86224       12.45048
C         54.08772      106.59994       11.22471
O         54.40162      104.81503       12.78596
H         51.41610      107.30553       12.05504
H         52.27116      104.60649       11.27646
H         53.44043      106.57212       13.30373
H         55.19098      105.22685       13.22404
H         54.17194      105.90540       10.36093
H         53.44165      107.45318       10.93337
H         55.09773      106.99918       11.45475
N         51.90112      103.11677       13.38948
C         51.57228      102.20686       14.48824
C         52.30020      102.58212       15.76945
O         52.02151      103.62779       16.33984
C         50.04177      102.09219       14.74473
C         49.29555      101.74614       13.43333
C         49.76352      101.04088       15.84418
C         47.77377      101.71062       13.58626
H         52.38686      102.69578       12.58290
H         51.92153      101.19601       14.17652
H         49.67405      103.06785       15.11036
H         49.64808      100.76733       13.04148
H         49.52059      102.52579       12.67457
H         50.11187      100.03646       15.52125
H         50.28024      101.30448       16.78997
H         48.68662      100.98899       16.09564
H         47.45127      100.89708       14.26607
H         47.40141      102.68335       13.97068
H         47.31080      101.51992       12.59598
N         53.20877      101.72550       16.31300
C         53.84423      101.94674       17.60354
C         55.33907      102.16570       17.48693
O         55.95045      102.33832       18.52872
C         53.49055      100.80668       18.59657
C         53.92219       99.41396       18.12999
O         52.10461      100.79266       18.82381
H         53.44288      100.86318       15.79875
H         53.46471      102.88256       18.07320
H         54.01829      100.99454       19.56319
H         51.92410      101.44126       19.55447
H         53.67367       98.67009       18.91700
H         53.38287       99.11637       17.20749
H         55.01597       99.38112       17.94633
N         55.99587      102.24997       16.28273
C         57.40095      102.65899       16.21980
C         57.48889      104.06512       16.79252
O         57.04652      105.00551       16.14823
C         57.97242      102.60611       14.77938
C         58.02127      101.17808       14.23217
O         57.19469      103.39832       13.91444
H         55.48279      102.08738       15.40659
H         57.99556      101.95837       16.84793
H         59.02710      102.97443       14.81640
H         57.79149      104.07849       13.50651
H         57.00484      100.73629       14.17223
H         58.46099      101.18517       13.21180
H         58.65590      100.53923       14.88219
N         57.88727      104.23612       18.08809
C         57.74213      105.47125       18.85534
C         56.28530      105.93792       18.90983
O         55.44347      105.41149       18.19532
C         58.65792      106.59234       18.32492
C         60.13311      106.16768       18.31096
C         61.02909      107.32105       17.84638
C         62.50101      106.89186       17.79856
N         63.35387      108.00069       17.37213
H         58.22803      103.41309       18.60782
H         58.04981      105.24278       19.90112
H         58.55116      107.48242       18.98281
H         58.35030      106.88579       17.29845
H         60.26148      105.30365       17.62280
H         60.43964      105.85867       19.33472
H         60.91812      108.17552       18.54996
H         60.71365      107.64968       16.83189
H         62.61587      106.04517       17.08532
H         62.82414      106.54848       18.80657
H         63.28151      108.79108       18.05347
H         64.34674      107.67505       17.33617
H         63.07017      108.32848       16.42023
N         55.91314      106.92954       19.76445
C         54.56610      107.50134       19.79005
C         53.47073      106.44540       19.94289
O         52.61373      106.40769       19.07175
C         54.41252      108.59831       20.87043
C         55.35297      109.79375       20.64831
C         55.14346      110.83154       21.71279
O         55.36336      110.52586       23.00639
O         54.78338      111.95813       21.41195
H         56.62754      107.29791       20.40912
H         54.39482      108.00160       18.80858
H         54.58220      108.18071       21.88244
H         53.36709      108.97940       20.83206
H         55.15419      110.23490       19.64674
H         56.41554      109.48028       20.68688
N         53.37465      105.55307       20.97135
C         54.30795      105.39817       22.06450
H         55.17748      106.07114       22.00182
H         53.77846      105.58115       23.02243
H         54.69103      104.35635       22.06116
H         52.57083      104.90685       20.97197
Ca        50.46822      106.34177       16.74915
O         48.90942      108.14082       18.91971
H         48.09884      107.92521       18.39389
H         49.15791      107.28588       19.35257
O         53.83377      106.45235       15.89019
H         54.42125      105.74497       15.52467
H         53.26840      105.97980       16.54911
O         52.32140      109.15545       17.05476
H         52.09500      109.64214       16.22261
H         51.73706      109.55869       17.74488

Ca 1.0



