%chk=apoCaM-CA-Ng.loop3.water2.frame643.chk
%nprocshared=20
%mem=10GB
%nosave
#b3lyp/svp scf=(tight,noincore,xqc) Test 
#IOP(5/87=12) Density=Current Pop=(MK,readradii) iop(6/33=2) iop(6/42=6)

apoCaM-CA-Ng.loop3.water2.frame643 

   0  1 
C         66.94345       52.85218        3.06499
C         66.73957       52.88102        1.57828
O         65.66028       52.52940        1.12384
H         67.95725       53.21095        3.34255
H         66.19420       53.51054        3.55252
H         66.82006       51.81553        3.44117
N         67.73814       53.30514        0.75364
C         67.59083       53.39608       -0.69515
C         67.33933       52.01800       -1.26328
O         68.20168       51.15874       -1.12971
C         68.86108       54.03079       -1.28826
C         68.75725       54.46324       -2.71561
O         69.71236       55.03321       -3.21712
O         67.64131       54.29917       -3.44970
H         68.62834       53.60249        1.18304
H         66.73127       54.06413       -0.90654
H         69.72388       53.34088       -1.16325
H         69.08685       54.95295       -0.71895
N         66.13673       51.70664       -1.82768
C         65.80261       50.32886       -2.17203
C         66.50772       49.87388       -3.44708
O         66.54100       48.67947       -3.70557
C         64.26334       50.14719       -2.20140
C         63.80136       48.76608       -1.69731
C         62.27837       48.75130       -1.46659
C         61.83915       47.52748       -0.64823
N         60.40522       47.57911       -0.35828
H         65.40651       52.43465       -1.86709
H         66.17483       49.72148       -1.31585
H         63.83296       50.42793       -3.18793
H         63.84789       50.85331       -1.44902
H         64.28116       48.60592       -0.70574
H         64.11536       47.94445       -2.37573
H         61.74573       48.79068       -2.44135
H         61.99379       49.64869       -0.87367
H         62.39295       47.52165        0.31859
H         62.08021       46.59098       -1.19566
H         60.14436       46.75848        0.23503
H         60.17414       48.45407        0.16796
H         59.85586       47.54815       -1.24697
N         67.08980       50.78277       -4.29244
C         67.85545       50.43331       -5.48656
C         69.27840       51.01435       -5.44083
O         70.02432       50.80076       -6.38623
C         67.05904       50.84362       -6.74609
C         66.77563       52.31240       -6.86897
O         67.68144       53.09742       -7.07579
O         65.50787       52.76255       -6.81731
H         66.97475       51.78758       -4.10018
H         67.97064       49.32942       -5.55712
H         66.08607       50.30707       -6.70690
H         67.58888       50.50687       -7.66353
N         69.74578       51.69983       -4.35110
C         71.12036       52.15739       -4.18985
C         71.55405       53.32116       -5.06432
O         72.70433       53.71304       -4.92665
H         69.13821       51.82574       -3.53374
H         71.80664       51.29725       -4.34862
H         71.25325       52.49526       -3.13853
N         70.73475       53.92300       -5.97605
C         71.17886       55.00360       -6.85674
C         70.26222       56.25024       -6.75175
O         68.99498       55.97959       -7.28405
C         71.24206       54.47161       -8.30130
C         72.29556       53.39803       -8.41903
N         71.96353       52.12532       -8.73382
O         73.46701       53.68398       -8.21865
H         69.78144       53.57112       -6.09194
H         72.20029       55.33929       -6.57142
H         71.50240       55.28657       -9.00985
H         70.24250       54.07425       -8.58590
H         70.98215       51.85732       -8.89428
H         72.69329       51.40047       -8.80327
N         70.90169       57.38905       -7.42942
C         70.09780       58.61317       -7.57407
C         69.51937       59.14084       -6.27790
O         70.20437       59.15169       -5.26457
H         71.76907       57.63126       -6.89544
H         69.30055       58.46282       -8.33370
H         70.77020       59.39940       -7.98013
N         68.26339       59.67174       -6.27238
C         67.60127       60.19925       -5.07885
C         67.28643       59.08399       -4.09404
O         67.64675       57.94576       -4.33678
C         66.31589       60.96642       -5.49189
C         66.65225       62.27905       -6.16399
C         67.31309       63.28511       -5.43262
C         66.29675       62.52893       -7.49865
C         67.61714       64.51209       -6.02486
C         66.60487       63.76032       -8.09144
C         67.26432       64.75447       -7.35832
O         67.54982       65.93647       -7.94143
H         67.76111       59.72489       -7.17221
H         68.27612       60.90934       -4.55459
H         65.69608       61.23910       -4.61480
H         65.69021       60.31140       -6.13752
H         67.58660       63.12472       -4.39697
H         65.78302       61.77433       -8.08002
H         68.12330       65.27375       -5.44412
H         66.32806       63.94417       -9.12158
H         68.00054       66.64909       -7.46522
N         66.63295       59.37246       -2.92896
C         66.33843       58.43087       -1.85286
C         65.44802       57.27424       -2.30939
O         65.84810       56.50283       -3.16890
C         67.64278       57.91493       -1.17099
C         67.34933       57.07362        0.10458
C         68.60895       59.06807       -0.83726
C         66.62730       57.80889        1.24010
H         66.35097       60.34740       -2.75612
H         65.79208       59.01612       -1.08395
H         68.18031       57.25505       -1.88621
H         68.31225       56.70106        0.51356
H         66.73427       56.19579       -0.16955
H         68.14148       59.80814       -0.15675
H         69.53107       58.66828       -0.36327
H         68.92098       59.59895       -1.76089
H         66.49874       57.11438        2.09670
H         67.21513       58.67923        1.59490
H         65.61703       58.14365        0.93326
N         64.24899       57.04925       -1.70451
C         63.40691       55.88425       -1.97074
C         61.96551       56.26483       -2.30064
O         61.12627       55.37819       -2.34763
C         63.43007       54.99914       -0.71263
O         62.90110       55.69617        0.38386
H         63.95343       57.68976       -0.95052
H         63.80747       55.26614       -2.80481
H         64.48628       54.71324       -0.51033
H         62.84023       54.07198       -0.88460
H         63.19564       55.20708        1.19502
N         61.59853       57.56084       -2.51648
C         60.21106       58.00318       -2.60143
C         59.88525       58.55814       -3.97584
O         60.71106       59.28153       -4.51327
C         60.02346       59.10256       -1.55896
H         62.32433       58.28967       -2.56634
H         59.51461       57.18070       -2.34876
H         60.71362       59.95241       -1.74954
H         58.99605       59.48855       -1.60544
H         60.21762       58.70133       -0.54155
N         58.69399       58.33813       -4.61812
C         57.53695       57.61749       -4.07908
C         56.25460       58.17639       -4.69239
O         56.16782       58.17611       -5.91346
C         57.64255       56.12776       -4.42356
H         58.58013       58.79861       -5.53574
H         57.49336       57.71196       -2.98085
H         58.55910       55.68517       -3.98376
H         56.76120       55.58323       -4.01880
H         57.67288       55.97973       -5.52504
N         55.19106       58.65720       -3.97682
C         55.05265       58.69538       -2.52161
C         56.07194       59.61647       -1.88956
O         56.74298       59.19056       -0.96093
C         53.62188       59.15396       -2.14602
C         53.35289       59.08726       -0.63245
C         51.92807       59.44871       -0.32285
O         51.11916       58.55099        0.27237
O         51.49734       60.55628       -0.60231
H         54.38601       58.99212       -4.53114
H         55.16997       57.66287       -2.12126
H         52.89957       58.47305       -2.64888
H         53.44078       60.18775       -2.51583
H         54.02473       59.78271       -0.08537
H         53.54675       58.05316       -0.27270
N         56.23066       60.89399       -2.33720
C         57.19370       61.82478       -1.78249
H         57.92074       62.11248       -2.57142
H         56.66694       62.73489       -1.42934
H         57.75693       61.39747       -0.92698
H         55.65603       61.22332       -3.12718
Ca        67.88330       55.36542       -5.40895
O         64.24784       55.51476       -5.65172
H         63.64896       56.28766       -5.49522
H         64.10669       55.28005       -6.60321
O         66.13088       56.80565       -7.74476
H         66.51469       56.26032       -8.47667
H         66.57022       57.68755       -7.83509

Ca 1.0



