%chk=apoCaM-CA-Ng.loop3.water5.frame1048.chk
%nprocshared=20
%mem=10GB
%nosave
#b3lyp/svp scf=(tight,noincore,xqc) Test 
#IOP(5/87=12) Density=Current Pop=(MK,readradii) iop(6/33=2) iop(6/42=6)

apoCaM-CA-Ng.loop3.water5.frame1048 

   0  1 
C         52.00186       78.97930       40.33638
C         53.49596       79.06141       40.26299
O         54.13727       79.03052       41.30377
H         51.61813       79.83895       40.92598
H         51.54420       79.01655       39.32552
H         51.70520       78.03206       40.83052
N         54.11855       79.21293       39.06084
C         55.56111       79.38143       38.92831
C         55.93412       80.82885       38.65813
O         57.10124       81.13599       38.81560
C         56.12111       78.42443       37.86485
C         55.47282       78.61339       36.51663
O         55.54726       79.68171       35.93356
O         54.78543       77.60157       35.95448
H         53.53569       79.27868       38.21228
H         56.05018       79.13785       39.89681
H         55.92018       77.38967       38.20502
H         57.22168       78.55733       37.77513
N         54.98837       81.76439       38.33713
C         55.17404       83.21639       38.22136
C         56.03713       83.59303       37.01485
O         55.53104       84.07209       36.00977
C         53.77475       83.89103       38.18242
C         52.99353       83.60080       39.49170
C         51.54247       84.09019       39.48929
C         51.41033       85.61479       39.44193
N         50.00465       86.00646       39.54524
H         54.02971       81.42387       38.20507
H         55.66351       83.61409       39.13864
H         53.20553       83.50496       37.30775
H         53.89654       84.98935       38.06976
H         53.53767       84.03537       40.35838
H         52.92527       82.50867       39.66706
H         51.07373       83.73307       40.43318
H         50.99476       83.62910       38.63807
H         51.83206       86.00598       38.49163
H         51.97445       86.05789       40.29255
H         49.46016       85.60857       38.74566
H         49.60168       85.66293       40.44800
H         49.93511       87.04886       39.52140
N         57.38127       83.41020       37.08903
C         58.35831       83.66366       36.03255
C         58.95500       82.33000       35.59129
O         60.16528       82.14636       35.62359
C         59.43729       84.65150       36.56769
C         60.17776       84.11414       37.77983
O         59.94595       82.84959       38.19074
O         60.94392       84.82926       38.40502
H         57.73193       83.07470       37.98135
H         57.85977       84.11446       35.14740
H         58.91599       85.58763       36.86503
H         60.17199       84.90299       35.77291
N         58.12608       81.33577       35.17596
C         58.57804       80.00078       34.81253
C         58.31373       79.73406       33.35359
O         57.89483       80.64487       32.65177
H         57.11520       81.52938       35.12423
H         58.04641       79.26708       35.44669
H         59.66729       79.87075       34.99052
N         58.57107       78.52981       32.77288
C         58.98381       77.31703       33.47852
C         57.77630       76.73721       34.21284
O         56.74237       76.60906       33.57160
C         59.47509       76.29024       32.43120
C         60.07169       75.05593       33.05588
N         61.19468       75.13947       33.80777
O         59.55150       73.96785       32.86153
H         58.44249       78.47401       31.74934
H         59.84168       77.54353       34.14493
H         60.26329       76.75477       31.79947
H         58.62891       76.01114       31.76332
H         61.65833       76.04616       33.96631
H         61.60992       74.29405       34.22549
N         57.77612       76.32960       35.51521
C         58.94062       76.30558       36.38863
C         58.61728       75.75695       37.77274
O         57.46263       75.47586       38.06801
H         56.87995       75.96433       35.87176
H         59.35583       77.32816       36.50013
H         59.70788       75.64775       35.93402
N         59.61254       75.54845       38.67824
C         59.37076       75.05567       40.03535
C         59.99838       76.00629       41.04701
O         60.67685       76.93941       40.63372
C         59.92666       73.61519       40.12778
C         59.59707       72.88138       41.40749
C         60.62405       72.37086       42.21944
C         58.25825       72.67400       41.78826
C         60.31794       71.66951       43.39031
C         57.95544       71.97904       42.96279
C         58.98547       71.47235       43.76724
O         58.70770       70.79345       44.89872
H         60.58765       75.72371       38.38416
H         58.27854       75.02405       40.23516
H         61.02574       73.64296       39.95828
H         59.47788       73.02165       39.30105
H         61.66213       72.50717       41.94411
H         57.44671       73.04829       41.17778
H         61.11815       71.27588       44.00426
H         56.92007       71.83099       43.24360
H         57.79962       70.63239       45.19287
N         59.80869       75.85831       42.39091
C         60.42713       76.76080       43.36844
C         61.94937       76.67278       43.29410
O         62.46451       75.83367       42.56810
C         59.90077       76.52146       44.81900
C         58.37719       76.80865       44.88732
C         60.25901       75.11742       45.34721
C         57.81141       76.80063       46.30863
H         59.18924       75.10585       42.71818
H         60.14911       77.80157       43.09097
H         60.39720       77.26405       45.48080
H         57.80862       76.07942       44.27266
H         58.19183       77.82473       44.47418
H         59.96338       75.00748       46.40979
H         59.75745       74.32092       44.76225
H         61.35601       74.95506       45.30455
H         58.34293       77.54494       46.93906
H         56.73498       77.07270       46.27607
H         57.89103       75.79725       46.77226
N         62.73293       77.54069       44.00121
C         64.18859       77.56362       43.87762
C         64.65363       78.91445       43.36663
O         63.89693       79.87234       43.41349
C         64.84531       77.23759       45.22161
O         64.43533       75.96650       45.64493
H         62.28527       78.23404       44.61864
H         64.52102       76.80269       43.13850
H         64.54166       78.00142       45.97304
H         65.95209       77.24794       45.10259
H         64.86383       75.81757       46.52737
N         65.89694       79.03825       42.81362
C         66.43112       80.26175       42.21729
C         66.76586       81.35076       43.22964
O         67.21933       82.40175       42.79812
C         65.51086       80.78219       41.09687
H         66.48735       78.19463       42.75547
H         67.39801       80.00102       41.73140
H         65.32762       79.97746       40.35317
H         64.53642       81.14207       41.48296
H         65.99173       81.63291       40.56913
N         66.62718       81.17301       44.57988
C         67.01146       82.16918       45.57756
C         66.20812       83.44185       45.40142
O         66.77392       84.50399       45.17748
C         68.53004       82.41117       45.55066
H         66.25427       80.28513       44.94194
H         66.77428       81.76611       46.58721
H         68.86731       82.83887       44.58459
H         68.81399       83.11740       46.35982
H         69.06488       81.45300       45.72015
N         64.85226       83.38312       45.48414
C         63.97983       84.53146       45.28224
C         63.13153       84.78810       46.51196
O         63.16459       85.90235       47.01568
C         63.15710       84.34745       43.99630
C         62.23178       83.12009       43.95338
C         61.61552       82.95823       42.60419
O         61.82737       83.76720       41.71212
O         60.85189       81.88961       42.34058
H         64.42337       82.46530       45.67287
H         64.57968       85.45119       45.09598
H         63.89351       84.25049       43.16541
H         62.55277       85.26362       43.81165
H         61.41075       83.21290       44.69176
H         62.81313       82.19896       44.15143
N         62.36218       83.80688       47.06497
C         61.52351       84.01054       48.22776
H         60.47229       83.76834       47.96570
H         61.85711       83.33501       49.04234
H         61.55788       85.05603       48.59914
H         62.37140       82.85947       46.66316
Ca        60.24567       81.99648       40.21442
O         60.04864       79.46106       38.15923
H         60.81512       79.13143       37.62625
H         59.89586       78.75376       38.83414
O         58.27695       79.58150       41.49998
H         57.63982       78.98874       41.97203
H         59.01995       78.98548       41.23386
O         57.58553       82.55806       41.91820
H         56.72770       82.06342       41.91667
H         57.42445       83.33718       41.32891
O         62.74984       81.29870       38.49492
H         62.64089       81.18191       37.51791
H         62.71715       82.27841       38.63404
O         62.16862       79.49171       40.83155
H         61.81581       79.43246       41.75433
H         62.79186       78.72648       40.75472

Ca 1.0



