%chk=apoCaM-CA-Ng.loop2.water2.frame978.chk
%nprocshared=20
%mem=10GB
%nosave
#b3lyp/svp scf=(tight,noincore,xqc) Test 
#IOP(5/87=12) Density=Current Pop=(MK,readradii) iop(6/33=2) iop(6/42=6)

apoCaM-CA-Ng.loop2.water2.frame978 

   -2  1 
C         41.89047       19.40991       62.73383
C         40.96171       18.33690       63.21565
O         39.85735       18.22818       62.70146
H         42.83618       18.95469       62.37087
H         41.43038       19.98588       61.90238
H         42.11466       20.10350       63.57029
N         41.36746       17.47618       64.19088
C         40.53348       16.39499       64.70083
C         40.92559       15.05631       64.06799
O         40.30504       14.05325       64.39096
C         40.63443       16.38008       66.24190
C         39.60130       15.49945       66.88833
O         39.97865       14.45992       67.65603
O         38.41335       15.74389       66.74556
H         42.33227       17.55868       64.54909
H         39.47168       16.58817       64.42691
H         40.47379       17.40834       66.63300
H         41.65710       16.05598       66.53705
N         41.89606       14.98128       63.10375
C         42.24701       13.76859       62.37086
C         43.76623       13.56167       62.39160
O         44.45954       14.50444       62.03383
C         41.79384       13.94475       60.91886
H         42.37694       15.84095       62.80469
H         41.68138       12.90099       62.75376
H         42.30421       14.80932       60.44270
H         42.01627       13.02850       60.33331
H         40.69707       14.12211       60.88554
N         44.40232       12.39590       62.73340
C         43.75086       11.14626       63.10914
C         44.55891       10.37394       64.14704
O         45.66308       10.77500       64.48548
C         43.44069       10.29397       61.85357
C         44.63707        9.72264       61.12902
O         45.56251       10.50800       60.54703
O         44.75702        8.51632       61.02816
H         45.42965       12.38537       62.63711
H         42.79694       11.37727       63.61830
H         42.84460       10.89671       61.13788
H         42.80714        9.43837       62.17056
N         44.02072        9.27029       64.73824
C         44.68015        8.49875       65.78099
C         44.56786        7.01658       65.49765
O         43.78876        6.37007       66.18344
H         43.05502        9.00337       64.49195
H         44.11881        8.69884       66.71986
H         45.73076        8.80408       65.96231
N         45.24624        6.36997       64.50746
C         46.26595        6.95880       63.64965
C         47.55323        7.17034       64.44733
O         48.10493        6.19865       64.94586
C         46.50837        5.99316       62.45622
C         47.37672        6.52365       61.34797
N         47.65020        5.74417       60.27635
O         47.81587        7.65810       61.39360
H         45.00827        5.37544       64.35875
H         45.87761        7.91140       63.23603
H         45.52633        5.76115       61.98887
H         46.94401        5.04248       62.83407
H         47.27685        4.78588       60.21421
H         48.23576        6.09560       59.50565
N         48.09627        8.41182       64.59511
C         49.31809        8.68407       65.34166
C         50.55227        8.77210       64.46033
O         51.61226        9.07439       64.98882
H         47.62444        9.21169       64.16206
H         49.48499        7.91727       66.12912
H         49.19084        9.65619       65.86611
N         50.50785        8.49482       63.12562
C         51.66589        8.54424       62.23693
C         51.42978        9.46406       61.05340
O         50.30879        9.88657       60.81206
C         51.97859        7.11564       61.70360
C         52.57274        6.23646       62.79982
O         50.81987        6.49315       61.20308
H         49.61911        8.20259       62.71695
H         52.55466        8.94335       62.77007
H         52.75223        7.15052       60.90316
H         50.56889        6.95842       60.36386
H         51.86998        6.12812       63.65119
H         52.80053        5.22959       62.38836
H         53.52281        6.68573       63.16127
N         52.47411        9.73365       60.21667
C         52.33066       10.38266       58.92397
C         52.37500        9.27230       57.90257
O         53.36476        8.55680       57.82171
C         53.45286       11.42608       58.65556
C         53.35681       11.96661       57.19722
C         53.37847       12.57114       59.67925
C         54.52250       12.86811       56.79419
H         53.39526        9.32904       60.44258
H         51.34923       10.90141       58.85235
H         54.43262       10.91109       58.77048
H         52.39721       12.50665       57.04589
H         53.38221       11.11585       56.48318
H         52.42466       13.13128       59.56956
H         53.44581       12.17515       60.71347
H         54.22461       13.27553       59.54719
H         55.48414       12.32650       56.92357
H         54.41741       13.14379       55.72299
H         54.53787       13.80370       57.38617
N         51.29794        9.06581       57.10698
C         51.19835        8.00426       56.12248
C         50.96383        8.55828       54.71842
O         50.91688        7.75556       53.79639
C         50.11809        6.98108       56.56242
C         48.82016        7.59086       57.03425
O         48.81707        8.30309       58.19246
O         47.78387        7.37266       56.42398
H         50.48886        9.69191       57.21889
H         52.15433        7.43669       56.05655
H         50.50784        6.40433       57.42971
H         49.95101        6.25425       55.73781
N         50.84242        9.89823       54.45709
C         50.71421       10.42839       53.10070
C         50.45073       11.93908       53.12271
O         51.24820       12.65043       53.72134
C         52.02830       10.21052       52.30054
C         51.95386       10.87795       50.93962
C         52.58427       12.12036       50.73907
C         51.21878       10.30756       49.88649
C         52.46808       12.78578       49.51686
C         51.11840       10.97118       48.65701
C         51.73750       12.21150       48.47527
H         50.85007       10.57255       55.23441
H         49.88652        9.89229       52.60341
H         52.29728        9.14011       52.18189
H         52.84769       10.67946       52.88914
H         53.13980       12.59068       51.54078
H         50.72111        9.35520       50.01830
H         52.93812       13.75156       49.38183
H         50.55168       10.53090       47.84691
H         51.64771       12.73122       47.52989
N         49.43307       12.52527       52.40685
C         49.32166       13.96949       52.20403
C         49.05577       14.80466       53.44082
O         48.98148       16.01967       53.31694
C         48.12577       14.11134       51.25432
C         48.20395       12.83337       50.45558
C         48.50228       11.81701       51.54729
H         50.26253       14.30139       51.70890
H         47.17853       14.05128       51.84086
H         48.11700       15.04971       50.66045
H         47.30465       12.59871       49.84829
H         49.08955       12.90310       49.78410
H         47.59056       11.57823       52.13858
H         48.89798       10.91147       51.05482
N         48.83142       14.22795       54.65098
C         48.42128       14.98381       55.82913
C         49.46599       15.96488       56.34227
O         49.14070       16.73029       57.24016
C         48.02299       13.99401       56.93346
C         49.23657       13.23561       57.49935
C         48.75470       12.06962       58.27785
O         48.21854       11.15002       57.68458
O         48.89684       12.02866       59.61416
H         48.84916       13.20133       54.71394
H         47.50983       15.55540       55.54414
H         47.29137       13.28543       56.48082
H         47.50670       14.51073       57.77181
H         49.82695       13.92368       58.14106
H         49.90820       12.84177       56.70623
N         50.74039       15.99038       55.85984
C         51.72662       16.91894       56.36625
H         52.69757       16.75833       55.85206
H         51.39218       17.96206       56.18231
H         51.87128       16.76214       57.45673
H         51.03822       15.32859       55.12984
Ca        47.21252        9.46029       59.36759
O         45.09291        9.01729       57.44769
H         45.93258        8.49969       57.47185
H         44.73135        8.83273       56.54691
O         48.13754       10.90614       62.24131
H         47.91907       11.87046       62.24902
H         47.26720       10.45581       62.36604

Ca 1.0



