%chk=apoCaM-CA-Ng.loop4.water5.frame868.chk
%nprocshared=20
%mem=10GB
%nosave
#b3lyp/svp scf=(tight,noincore,xqc) Test 
#IOP(5/87=12) Density=Current Pop=(MK,readradii) iop(6/33=2) iop(6/42=6)

apoCaM-CA-Ng.loop4.water5.frame868 

   -3  1 
C         61.35427       59.34663      102.29291
C         62.08279       60.65481      102.34006
O         63.30543       60.65272      102.31778
H         60.71002       59.31150      101.39026
H         62.06943       58.49921      102.25117
H         60.72632       59.23564      103.20058
N         61.38134       61.82726      102.39306
C         61.99701       63.15184      102.46176
C         62.81415       63.48489      101.20615
O         63.51305       64.48899      101.21071
C         62.81649       63.26572      103.77520
C         63.30160       64.66359      104.04508
O         64.61944       64.90729      104.17546
O         62.50422       65.58090      104.16076
H         60.35104       61.77964      102.40260
H         61.18428       63.90893      102.52825
H         63.68760       62.57984      103.75871
H         62.16519       62.97286      104.62820
N         62.76681       62.70345      100.08412
C         63.61335       62.94273       98.91225
C         63.26972       64.28507       98.24252
O         62.23471       64.84348       98.58025
C         63.48862       61.75805       97.88489
C         62.11354       61.75616       97.15304
C         63.79306       60.39557       98.54663
C         62.00558       60.71279       96.03875
H         62.13342       61.89692      100.07474
H         64.65920       62.96833       99.28815
H         64.27297       61.89614       97.12383
H         61.96469       62.73984       96.65885
H         61.28243       61.60588       97.87391
H         63.01320       60.09474       99.27530
H         63.85528       59.59227       97.78520
H         64.77229       60.43146       99.06709
H         62.04543       59.68209       96.44343
H         61.03240       60.83204       95.51599
H         62.82043       60.85479       95.29692
N         64.01213       64.86538       97.24758
C         65.32557       64.43627       96.78575
C         66.25589       65.64926       96.82207
O         66.77310       66.04664       95.78563
C         65.20528       63.85814       95.35183
C         66.48181       63.21821       94.85816
O         66.51230       62.72350       93.74331
O         67.58465       63.16268       95.63286
H         63.62248       65.70973       96.79776
H         65.73188       63.64420       97.44612
H         64.89096       64.66129       94.65074
H         64.41783       63.08042       95.32052
N         66.47993       66.31666       97.98889
C         67.27964       67.53507       98.06474
C         68.51309       67.38797       98.92564
O         69.22460       68.37032       99.08040
H         66.04175       65.96757       98.85564
H         66.64188       68.34254       98.48366
H         67.61982       67.86499       97.06030
N         68.83930       66.20389       99.51247
C         70.00355       66.01213      100.36321
C         70.96048       64.98902       99.77343
O         72.15407       65.26261       99.77574
C         69.56920       65.68891      101.81109
C         68.50248       64.63351      101.95600
O         67.32029       64.96211      102.51099
O         68.68862       63.48670      101.59210
H         68.22812       65.38938       99.37073
H         70.59580       66.95139      100.46185
H         69.14586       66.62491      102.23826
H         70.46371       65.42655      102.41873
N         70.54360       63.80824       99.22612
C         71.49747       62.82236       98.73915
C         72.23100       62.14101       99.88139
O         73.19577       61.43806       99.62669
H         69.53987       63.59640       99.14168
H         72.21062       63.32170       98.04706
H         70.97229       62.02761       98.16633
N         71.77260       62.25146      101.16216
C         72.32955       61.59935      102.33568
C         72.32989       60.09019      102.17719
O         73.32266       59.44333      102.49031
C         73.69482       62.20660      102.71719
C         73.56984       63.72349      102.94999
C         74.87478       64.32792      103.39274
N         75.47498       65.29458      102.65923
O         75.38999       63.95148      104.43494
H         70.93156       62.80280      101.34439
H         71.63525       61.81052      103.18131
H         74.44087       62.01270      101.91619
H         74.04797       61.72476      103.65531
H         72.80765       63.92221      103.73443
H         73.23086       64.21217      102.01213
H         75.05613       65.63139      101.77987
H         76.36345       65.71187      102.97338
N         71.22783       59.46255      101.67352
C         71.10908       58.01576      101.53097
C         69.81155       57.46178      102.12779
O         69.67688       56.25059      102.13897
C         71.21216       57.59546      100.03087
C         70.15376       58.27578       99.14283
C         72.61317       57.87217       99.47203
H         70.45725       60.05613      101.32989
H         71.93913       57.51257      102.07634
H         71.06058       56.49512       99.96370
H         70.23498       57.90373       98.09919
H         69.13159       58.04808       99.50390
H         70.29176       59.37760       99.12235
H         72.68554       57.51249       98.42308
H         72.84206       58.95402       99.48845
H         73.37703       57.33396      100.07240
N         68.78628       58.26830      102.55875
C         67.46948       57.73300      102.91500
C         67.00391       58.32650      104.25137
O         67.69932       59.14808      104.82213
C         66.54124       58.05997      101.70577
C         65.33200       57.16517      101.49875
N         65.30277       56.29115      100.46151
O         64.36135       57.24372      102.22999
H         68.86847       59.28848      102.50480
H         67.52262       56.62804      103.00677
H         67.16289       57.89287      100.80186
H         66.26065       59.13515      101.68628
H         66.09727       56.20512       99.81033
H         64.48201       55.68677      100.30803
N         65.80051       57.96565      104.78112
C         65.19728       58.56960      105.96854
C         64.65949       57.47709      106.88519
O         64.54642       56.33839      106.46048
C         64.04730       59.47045      105.44845
C         63.10535       60.04299      106.48173
C         61.74237       59.69934      106.42793
C         63.55001       60.91884      107.48513
C         60.84326       60.21017      107.36264
C         62.64524       61.42514      108.42771
C         61.29136       61.07166      108.37006
O         60.43043       61.56408      109.28338
H         65.24222       57.27264      104.28559
H         65.93676       59.18296      106.52649
H         63.44700       58.85984      104.73794
H         64.48942       60.30531      104.86257
H         61.37011       59.03179      105.66084
H         64.59344       61.20129      107.54314
H         59.79858       59.93324      107.30358
H         62.99536       62.09231      109.20482
H         59.48881       61.33767      109.27408
N         64.28601       57.77279      108.16825
C         63.61140       56.81273      109.02960
C         62.30265       57.43136      109.50617
O         62.35402       58.26866      110.39573
C         64.48871       56.42203      110.23563
C         65.78721       55.73140      109.80091
C         66.60094       55.33062      110.99741
O         67.04511       56.26662      111.85827
O         66.86939       54.15594      111.19253
H         64.46243       58.71358      108.54201
H         63.41642       55.88301      108.47285
H         63.91310       55.71879      110.87911
H         64.73403       57.32767      110.83380
H         66.39374       56.41785      109.17286
H         65.53784       54.82837      109.20070
N         61.08631       57.16348      108.94235
C         60.87219       56.32720      107.76301
C         61.17715       54.85945      108.00261
O         61.42271       54.45849      109.13331
C         59.42554       56.49827      107.23571
C         58.34973       55.96799      108.20292
C         56.97550       56.24756      107.67416
O         56.61461       55.77345      106.60868
O         56.13188       57.02445      108.38035
H         60.28374       57.68748      109.32487
H         61.55528       56.70322      106.96926
H         59.31879       55.97643      106.26027
H         59.24917       57.57991      107.05062
H         58.44398       56.45682      109.19386
H         58.46569       54.87235      108.34494
N         61.19408       53.99781      106.94972
C         61.50264       52.59451      107.10264
H         62.52166       52.47656      107.52894
H         60.75835       52.11297      107.77066
H         61.47304       52.09292      106.11180
H         60.99943       54.35147      106.00042
Ca        53.95149       57.34852      106.34623
O         53.85998       60.03391      108.03403
H         54.55152       60.63828      107.66449
H         53.72817       60.34551      108.96466
O         51.87620       55.12520      106.66684
H         51.75687       54.74805      105.75927
H         51.58714       54.40195      107.27820
O         52.06235       57.43812      109.14983
H         51.83994       58.39199      109.29452
H         51.67168       56.97143      109.93087
O         54.11341       54.91498      108.97040
H         54.48529       54.13580      108.48564
H         53.62063       54.52275      109.73419
O         51.40562       58.76693      105.44525
H         50.94388       58.80741      106.32049
H         52.12867       59.44014      105.51550

Ca 1.0



