%chk=apoCaM-CA-Ng.loop4.water3.frame38.chk
%nprocshared=20
%mem=10GB
%nosave
#b3lyp/svp scf=(tight,noincore,xqc) Test 
#IOP(5/87=12) Density=Current Pop=(MK,readradii) iop(6/33=2) iop(6/42=6)

apoCaM-CA-Ng.loop4.water3.frame38 

   -3  1 
C         59.14394       74.55304       39.34495
C         58.11060       75.37937       38.64458
O         56.98624       75.43883       39.11735
H         59.98315       75.20705       39.66212
H         58.71181       74.06850       40.24724
H         59.52413       73.76757       38.66039
N         58.44236       76.07922       37.52056
C         57.53386       76.95980       36.79241
C         57.01477       78.05037       37.71141
O         55.81898       78.14802       37.91785
C         56.46994       76.17334       35.97300
C         55.53932       75.26013       36.72755
O         54.65897       75.75014       37.61857
O         55.55068       74.06068       36.49989
H         59.41669       76.02604       37.18593
H         58.12353       77.48960       36.01026
H         57.02827       75.55401       35.23578
H         55.85462       76.89584       35.39350
N         57.91433       78.89392       38.30675
C         57.63583       80.00634       39.22239
C         57.00763       81.19762       38.50003
O         57.67287       82.21949       38.39403
C         56.88154       79.54929       40.50205
C         56.64830       80.70744       41.51046
C         57.64310       78.39003       41.17219
C         57.92299       81.36446       42.05398
H         58.91245       78.72012       38.10934
H         58.63475       80.36308       39.55947
H         55.87557       79.17389       40.21882
H         56.06822       80.31615       42.37471
H         56.02917       81.49350       41.02808
H         58.67889       78.68104       41.44106
H         57.12436       78.06073       42.08661
H         57.70409       77.51732       40.49558
H         58.54719       80.63189       42.60516
H         58.52316       81.82319       41.24385
H         57.64489       82.17561       42.75711
N         55.76794       81.14320       37.94013
C         55.23429       82.20536       37.10091
C         54.84033       83.45674       37.89274
O         55.40551       84.49682       37.58603
C         54.09994       81.65391       36.20885
C         53.61561       82.62171       35.15654
O         54.13904       83.85836       35.04095
O         52.74874       82.26818       34.37409
H         55.21377       80.28926       38.02686
H         56.03546       82.47979       36.37416
H         53.25106       81.31191       36.82529
H         54.49259       80.76270       35.66964
N         53.89419       83.51424       38.88410
C         53.19306       82.39700       39.49554
C         51.82526       82.15265       38.88878
O         51.50635       82.78521       37.89157
H         53.71135       84.43748       39.30799
H         53.06776       82.62732       40.57490
H         53.80937       81.48703       39.43178
N         50.94213       81.23035       39.38752
C         51.08297       80.48551       40.64598
C         52.47344       79.81754       40.74956
O         52.72957       79.01697       39.61898
C         49.88584       79.49848       40.81397
C         49.87449       78.35513       39.83673
O         49.80278       78.55787       38.63608
O         49.91366       77.08912       40.29531
H         50.07354       81.09233       38.84674
H         51.02436       81.23028       41.46798
H         48.93474       80.06569       40.71770
H         49.87300       79.04879       41.81948
N         52.82721       79.11365       41.99951
C         52.29652       79.56099       43.30369
C         52.80855       80.87204       43.86130
O         53.60124       81.56863       43.24546
H         53.86962       79.06411       42.05999
H         52.55330       78.77853       44.04905
H         51.19997       79.61506       43.29294
N         52.32458       81.25266       45.07953
C         52.63835       82.49430       45.78069
C         54.07891       82.55661       46.24733
O         54.68317       83.61548       46.14652
C         51.77308       82.63976       47.06147
C         50.26006       82.71007       46.79459
C         49.49464       82.91578       48.07987
N         49.65634       84.04383       48.81215
O         48.71091       82.05819       48.45899
H         51.65410       80.61059       45.52935
H         52.40356       83.36971       45.13469
H         52.07793       83.57994       47.57312
H         51.97706       81.79272       47.75116
H         49.91944       81.76500       46.32249
H         50.02954       83.54791       46.10313
H         50.29830       84.78841       48.50431
H         49.12794       84.18060       49.68677
N         54.64979       81.48745       46.87269
C         55.90732       81.55977       47.61678
C         55.74405       81.03619       49.05066
O         56.71747       81.08791       49.78904
C         57.04985       80.81430       46.87916
C         57.34320       81.47893       45.52897
C         56.75843       79.32243       46.68356
H         54.14753       80.58814       46.84247
H         56.23141       82.62085       47.71070
H         57.97601       80.90599       47.49028
H         58.21001       80.98377       45.04359
H         56.46448       81.41235       44.85325
H         57.60196       82.55006       45.67585
H         56.59662       78.82145       47.66047
H         55.85907       79.18221       46.05286
H         57.62220       78.83380       46.18435
N         54.56221       80.51995       49.51640
C         54.37423       79.99538       50.86422
C         54.04201       78.50284       50.83680
O         54.73747       77.75073       51.50642
C         53.36485       80.85840       51.67112
C         51.96175       81.08698       51.14230
N         51.10149       81.84573       51.85894
O         51.59003       80.62338       50.07966
H         53.74298       80.48978       48.90389
H         55.31937       80.08330       51.44717
H         53.81861       81.86779       51.78147
H         53.28075       80.41562       52.68764
H         51.38841       82.26154       52.75689
H         50.14618       82.02152       51.51301
N         53.02860       77.99116       50.07830
C         52.66689       76.57429       50.04081
C         52.81867       76.02149       48.63789
O         53.05100       76.79925       47.72761
C         51.17730       76.42925       50.41818
C         50.84546       76.89960       51.80412
C         49.98277       77.99222       51.98939
C         51.35684       76.22515       52.92245
C         49.63163       78.40077       53.27703
C         50.99882       76.63124       54.21053
C         50.13122       77.71928       54.39142
O         49.76540       78.11247       55.62738
H         52.48766       78.61677       49.47266
H         53.30958       75.97798       50.72431
H         50.84702       75.37166       50.34390
H         50.58400       77.00915       49.67473
H         49.57481       78.52398       51.13814
H         52.01498       75.37432       52.79565
H         48.96116       79.24085       53.40646
H         51.38837       76.09366       55.06533
H         50.07173       77.65496       56.42304
N         52.58355       74.69039       48.40265
C         52.47191       74.02959       47.09891
C         53.79834       73.80527       46.38238
O         54.12191       72.65644       46.11072
C         51.43757       74.72927       46.18732
C         50.06170       74.83073       46.86847
C         49.05592       75.49833       45.97803
O         48.46495       76.64355       46.37004
O         48.75688       75.00146       44.90402
H         52.35908       74.10003       49.21807
H         52.06734       73.00809       47.29067
H         51.33247       74.13701       45.25119
H         51.78562       75.74428       45.90326
H         50.14982       75.42309       47.80219
H         49.69348       73.81589       47.13274
N         54.59510       74.83756       45.99679
C         55.79594       74.67477       45.18450
C         56.88995       73.88628       45.89180
O         57.88047       73.56896       45.24669
C         56.38453       76.04854       44.76566
C         55.36261       77.04325       44.19499
C         54.59430       76.52013       43.02666
O         55.19499       76.33251       41.84171
O         53.37950       76.42128       43.10106
H         54.30065       75.77529       46.23232
H         55.49153       74.13031       44.26241
H         57.19213       75.88367       44.01860
H         56.83553       76.53655       45.65660
H         55.87574       77.98059       43.90390
H         54.64295       77.36312       44.97202
N         56.81042       73.55930       47.21394
C         57.85934       72.82598       47.88545
H         58.81210       73.39440       47.83206
H         57.59219       72.67965       48.95370
H         57.98952       71.83112       47.40999
H         56.00059       73.84683       47.78028
Ca        53.82008       77.12196       40.26739
O         54.33558       73.72547       40.32929
H         53.90613       73.64231       41.21769
H         55.30521       73.65079       40.51497
O         51.49833       74.54776       39.12519
H         50.56808       74.53849       38.78619
H         51.73155       75.50779       39.18329
O         52.28914       77.35533       37.14151
H         52.67159       77.98240       36.47777
H         51.41738       77.08402       36.75896

Ca 1.0



