%chk=apoCaM-CA-Ng.loop4.water5.frame652.chk
%nprocshared=20
%mem=10GB
%nosave
#b3lyp/svp scf=(tight,noincore,xqc) Test 
#IOP(5/87=12) Density=Current Pop=(MK,readradii) iop(6/33=2) iop(6/42=6)

apoCaM-CA-Ng.loop4.water5.frame652 

   -3  1 
C         85.88593       63.36551       18.00738
C         86.08068       64.33068       19.13823
O         85.95448       65.52786       18.93265
H         85.63836       63.90172       17.06677
H         86.81675       62.78196       17.85162
H         85.05598       62.66899       18.25056
N         86.37251       63.86385       20.38386
C         86.57685       64.70854       21.55726
C         85.35533       65.57850       21.80675
O         85.48254       66.78814       21.94713
C         87.87120       65.54385       21.41927
C         89.07400       64.66812       21.21437
O         89.74836       64.77969       20.20333
O         89.41812       63.76159       22.14879
H         86.43398       62.84269       20.51957
H         86.69374       64.04019       22.43949
H         88.03027       66.14266       22.34179
H         87.77910       66.24961       20.56470
N         84.11498       65.01668       21.81706
C         82.90041       65.81582       21.96709
C         82.74662       66.29047       23.41359
O         83.31096       65.65456       24.29329
C         81.63885       65.02988       21.46889
C         81.33298       63.77134       22.32568
C         81.79623       64.69622       19.97039
C         80.02597       63.07719       21.93385
H         84.04636       64.00717       21.62697
H         83.00941       66.70006       21.30255
H         80.75462       65.68688       21.55124
H         81.22405       64.07918       23.38720
H         82.15635       63.03102       22.26335
H         80.87020       64.25251       19.55472
H         81.99163       65.62524       19.39304
H         82.63438       63.99024       19.79469
H         79.17497       63.78772       22.00643
H         80.07677       62.66618       20.90561
H         79.83736       62.22843       22.62405
N         81.97595       67.36081       23.77901
C         81.34685       68.28946       22.84200
C         82.37653       69.18494       22.16566
O         82.04198       69.80254       21.16447
C         80.29356       69.15856       23.55547
C         79.21836       68.30799       24.17741
O         78.52935       67.57886       23.48113
O         79.01272       68.34514       25.50775
H         81.86418       67.54159       24.78975
H         80.81190       67.72050       22.06368
H         79.81476       69.84901       22.82755
H         80.78670       69.76837       24.34434
N         83.63991       69.32495       22.66584
C         84.67499       70.12040       22.03099
C         84.28376       71.57043       21.88712
O         83.98141       72.21096       22.88401
H         83.90153       68.84287       23.53771
H         84.91464       69.67898       21.04037
H         85.59615       70.07267       22.65201
N         84.31111       72.15877       20.65762
C         84.01161       73.56496       20.42080
C         82.84001       73.75938       19.46194
O         82.50611       74.90726       19.20273
C         85.30602       74.29346       19.97345
C         86.03926       73.66958       18.81295
O         85.54193       73.62798       17.70380
O         87.28177       73.18161       18.99330
H         84.60001       71.59016       19.84647
H         83.69759       74.06396       21.36381
H         86.00304       74.27413       20.83917
H         85.09016       75.36024       19.74715
N         82.12858       72.71523       18.93144
C         80.97453       72.91375       18.05821
C         81.32124       73.51870       16.70762
O         80.41191       73.78842       15.93740
H         82.37067       71.74557       19.17815
H         80.23973       73.56191       18.58226
H         80.48688       71.93330       17.86363
N         82.61576       73.72263       16.34025
C         83.07288       74.25636       15.06595
C         82.70013       73.33380       13.92197
O         82.40382       73.79381       12.82737
C         82.67728       75.73880       14.88508
C         83.27197       76.58896       16.02378
C         82.95900       78.05357       15.87310
N         82.29436       78.72190       16.84559
O         83.33035       78.65072       14.87381
H         83.35442       73.43842       16.98322
H         84.18595       74.22346       15.08761
H         81.57144       75.84726       14.86493
H         83.08310       76.10706       13.91743
H         84.37714       76.47050       16.03139
H         82.88127       76.22611       16.99640
H         81.98386       78.24183       17.70321
H         82.09781       79.72889       16.74735
N         82.74662       71.98616       14.12206
C         82.56268       70.98210       13.08511
C         83.71382       69.97039       13.08763
O         83.66397       69.05527       12.27919
C         81.21198       70.23002       13.29515
C         81.13686       69.49139       14.64556
C         80.01862       71.18484       13.15747
H         82.91282       71.64698       15.08026
H         82.52950       71.46038       12.08052
H         81.11104       69.46992       12.48825
H         81.96610       68.75990       14.74244
H         81.18188       70.20045       15.49836
H         80.18236       68.92813       14.71783
H         79.06563       70.62015       13.24596
H         80.03908       71.96506       13.94585
H         80.03499       71.67766       12.16227
N         84.73293       70.01743       14.00747
C         85.67565       68.92245       14.19715
C         87.12573       69.36886       14.07596
O         87.44615       70.52746       14.28946
C         85.42420       68.33538       15.60481
C         86.31968       67.16918       15.94027
N         87.19130       67.24754       16.97326
O         86.25960       66.14732       15.27333
H         84.80475       70.79411       14.67574
H         85.49304       68.12149       13.44845
H         84.36771       67.99664       15.67862
H         85.56962       69.14450       16.35464
H         87.25601       68.09980       17.54920
H         87.80817       66.45343       17.19904
N         88.06072       68.42494       13.76752
C         89.50836       68.64759       13.72446
C         90.20975       67.40552       13.15784
O         89.59792       66.35015       13.07621
C         90.01898       68.92441       15.16561
C         91.52100       69.04699       15.26951
C         92.25527       68.05155       15.93661
C         92.20288       70.12824       14.68924
C         93.64796       68.12147       16.00374
C         93.59916       70.20070       14.76345
C         94.32606       69.19584       15.41331
O         95.67156       69.26999       15.46064
H         87.69325       67.49024       13.55000
H         89.71348       69.49518       13.03534
H         89.68458       68.06565       15.78976
H         89.55199       69.83570       15.59396
H         91.74804       67.21038       16.38761
H         91.65478       70.90621       14.17362
H         94.19829       67.33715       16.50793
H         94.11785       71.03415       14.30757
H         96.20931       68.58685       15.88681
N         91.50407       67.46880       12.71928
C         92.19920       66.30600       12.18552
C         93.46689       66.03822       12.99181
O         94.43230       66.76545       12.80742
C         92.52130       66.51213       10.69343
C         91.23819       66.63548        9.85652
C         91.55944       66.87208        8.41070
O         91.20107       66.07213        7.56136
O         92.22922       67.98078        8.04152
H         92.00584       68.36610       12.73433
H         91.54186       65.42907       12.22898
H         93.10182       65.63954       10.31935
H         93.14122       67.42841       10.57340
H         90.61864       67.48399       10.21656
H         90.64640       65.69848        9.96198
N         93.56232       65.05411       13.94176
C         92.43545       64.24038       14.39458
C         91.93094       63.28070       13.33134
O         92.57089       63.11281       12.30146
C         92.77981       63.42847       15.66477
C         93.18473       64.30624       16.85768
C         93.21000       63.48600       18.11189
O         92.34123       63.77702       19.09848
O         93.96399       62.53215       18.22142
H         94.46442       64.96195       14.43399
H         91.61015       64.94004       14.65719
H         93.58297       62.68796       15.45293
H         91.86774       62.86889       15.96398
H         92.42321       65.09959       16.99487
H         94.17328       64.78373       16.69299
N         90.74097       62.64280       13.52260
C         90.14248       61.74416       12.55941
H         89.15537       62.14949       12.25106
H         90.76891       61.61702       11.65265
H         89.98992       60.75132       13.03086
H         90.20827       62.82043       14.38784
Ca        92.01200       62.40401       20.85301
O         92.50922       64.50597       22.97990
H         92.84110       65.19023       22.34586
H         93.20637       63.80270       22.97249
O         91.10569       61.08634       23.45371
H         91.74441       60.34694       23.29301
H         91.57361       61.68468       24.08885
O         94.53879       61.01134       21.51694
H         94.73681       61.94298       21.78820
H         94.46496       61.05161       20.53029
O         90.00822       62.28346       18.04491
H         89.15192       61.78770       18.03300
H         89.82674       63.10871       17.52830
O         91.01715       59.50309       20.28806
H         91.27656       59.26822       19.36182
H         91.70098       59.06653       20.85583

Ca 1.0



