%chk=apoCaM-CA-Ng.loop3.water5.frame1035.chk
%nprocshared=20
%mem=10GB
%nosave
#b3lyp/svp scf=(tight,noincore,xqc) Test 
#IOP(5/87=12) Density=Current Pop=(MK,readradii) iop(6/33=2) iop(6/42=6)

apoCaM-CA-Ng.loop3.water5.frame1035 

   0  1 
C         40.97913       38.16104       45.19067
C         41.82504       38.57518       44.02420
O         41.68617       39.70395       43.57475
H         39.90756       38.22280       44.90466
H         41.19923       37.11896       45.50344
H         41.16800       38.84007       46.04735
N         42.70473       37.69868       43.46008
C         43.50514       38.02154       42.28309
C         43.02358       37.26595       41.05195
O         43.43600       37.64187       39.96951
C         45.01936       37.85239       42.54706
C         45.43249       36.46469       42.96825
O         46.20764       35.82159       42.28216
O         45.00912       35.94740       44.13685
H         42.76351       36.75026       43.85549
H         43.35407       39.09253       42.02237
H         45.33272       38.55765       43.34665
H         45.56761       38.13354       41.62119
N         42.10529       36.25626       41.11669
C         41.46016       35.66972       39.93975
C         42.45673       35.09187       38.94690
O         43.28038       34.26495       39.31081
C         40.40954       34.61638       40.34521
C         39.24875       35.26875       41.12165
C         38.14032       34.26572       41.44527
C         36.97833       34.96959       42.16149
N         35.89646       34.03231       42.45542
H         41.80670       35.92102       42.04052
H         40.89982       36.47698       39.42120
H         40.88168       33.80444       40.94094
H         39.98594       34.17244       39.41687
H         38.81604       36.08041       40.49533
H         39.61067       35.71691       42.07062
H         38.54627       33.45770       42.09227
H         37.76538       33.81662       40.49971
H         36.58507       35.78629       41.51486
H         37.34273       35.42167       43.11119
H         35.12150       34.54595       42.93398
H         35.52977       33.61884       41.56737
H         36.24117       33.27220       43.08531
N         42.41306       35.51402       37.64747
C         43.37531       35.13352       36.61285
C         44.77747       35.56366       37.00047
O         45.69892       34.77706       36.83181
C         42.97429       35.67537       35.21562
C         42.48652       37.09849       35.19147
O         41.35400       37.32484       34.79258
O         43.21458       38.12115       35.66949
H         41.66080       36.16960       37.39100
H         43.39170       34.02616       36.49837
H         42.12850       35.05130       34.84739
H         43.81443       35.53915       34.50197
N         44.99735       36.76016       37.61268
C         46.28230       37.18574       38.14737
C         46.82646       36.22802       39.20118
O         46.23027       35.18424       39.42470
H         44.20232       37.39587       37.74670
H         46.13398       38.18017       38.61490
H         47.01944       37.28354       37.32194
N         47.96655       36.47679       39.90877
C         48.73058       37.71493       39.87196
C         48.81054       38.26088       41.29799
O         49.34358       37.56541       42.15121
C         50.14268       37.44849       39.32687
C         50.93360       38.73152       39.23005
N         52.06218       38.90705       39.95517
O         50.54390       39.62553       38.49315
H         48.29498       35.74209       40.55597
H         48.25902       38.44042       39.18663
H         50.07280       37.00052       38.31206
H         50.66046       36.71758       39.98602
H         52.40378       38.17102       40.58975
H         52.59161       39.78910       39.88990
N         48.30958       39.47194       41.66966
C         47.63293       40.36602       40.74984
C         47.09550       41.61461       41.40677
O         47.28401       41.83523       42.59700
H         48.40651       39.73846       42.66190
H         46.76240       39.83165       40.31384
H         48.32678       40.66618       39.93522
N         46.34654       42.46404       40.65799
C         45.69606       43.65398       41.20193
C         44.67031       44.19299       40.21635
O         44.70624       43.83234       39.04439
C         46.76390       44.73154       41.53293
C         46.22893       45.96136       42.22906
C         46.32504       47.22723       41.62332
C         45.65733       45.85759       43.50794
C         45.85467       48.36611       42.28558
C         45.18992       46.99779       44.16890
C         45.28846       48.25695       43.55968
O         44.84897       49.36559       44.18923
H         46.18691       42.18739       39.67664
H         45.13813       43.33419       42.10983
H         47.26459       45.01667       40.58041
H         47.54662       44.30643       42.19436
H         46.76750       47.33700       40.64111
H         45.58255       44.89480       43.99678
H         45.93640       49.33614       41.81065
H         44.75692       46.90192       45.15649
H         44.46084       49.33499       45.07548
N         43.68818       45.04468       40.62396
C         42.70692       45.57785       39.67974
C         43.40663       46.42526       38.62195
O         44.60644       46.64427       38.72400
C         41.53134       46.31659       40.38788
C         40.72749       45.30809       41.25321
C         42.00558       47.53997       41.19531
C         39.42227       45.87572       41.81220
H         43.62997       45.28488       41.62333
H         42.25397       44.71606       39.13984
H         40.84132       46.67925       39.59586
H         41.34689       44.92570       42.09227
H         40.44450       44.44183       40.61467
H         41.14010       48.09954       41.60337
H         42.65496       47.24544       42.04444
H         42.56736       48.23861       40.54173
H         38.77294       46.23183       40.98400
H         38.88057       45.07598       42.36132
H         39.61096       46.70630       42.52057
N         42.72123       46.88520       37.53866
C         43.38208       47.53138       36.40724
C         43.08988       46.76331       35.13155
O         42.25496       45.87164       35.15152
C         42.93217       48.99005       36.29775
O         41.54454       49.05770       36.11210
H         41.70445       46.72319       37.48365
H         44.48492       47.52584       36.54804
H         43.44875       49.48444       35.44637
H         43.21891       49.50437       37.24406
H         41.28179       49.99036       36.32491
N         43.76295       47.05112       33.97738
C         43.53852       46.35942       32.70989
C         42.16242       46.65028       32.11945
O         41.79219       45.97222       31.17152
C         43.80171       44.84519       32.84839
H         44.48931       47.78231       33.99861
H         44.28087       46.72752       31.96761
H         44.82299       44.67197       33.24943
H         43.06873       44.34120       33.50818
H         43.73996       44.35298       31.85409
N         41.36950       47.67042       32.58542
C         40.04875       48.00229       32.04563
C         39.01586       46.91140       32.31229
O         37.92327       46.98082       31.76688
C         40.14308       48.36552       30.55383
H         41.71359       48.26949       33.34847
H         39.67433       48.91544       32.55895
H         39.15748       48.72049       30.18543
H         40.87723       49.18791       30.41616
H         40.44597       47.50688       29.92349
N         39.27785       45.89917       33.18574
C         38.36311       44.80436       33.48010
C         37.04912       45.30366       34.04672
O         36.01695       45.05200       33.43927
C         39.07322       43.83597       34.44212
C         38.26406       42.59589       34.82463
C         39.18526       41.65919       35.54277
O         38.99431       41.34254       36.70594
O         40.23873       41.17018       34.86233
H         40.18342       45.89519       33.67144
H         38.16120       44.25263       32.53403
H         39.37121       44.36449       35.37566
H         40.00398       43.51422       33.92172
H         37.88821       42.08014       33.91505
H         37.39931       42.88503       35.46089
N         37.00217       46.00830       35.20917
C         35.74914       46.47000       35.76732
H         35.08560       45.60312       35.97680
H         35.93235       47.01439       36.71720
H         35.24393       47.15488       35.05310
H         37.87470       46.21885       35.71591
Ca        41.95227       39.97419       35.66895
O         42.02301       43.08964       36.64076
H         41.31937       43.75031       36.86119
H         42.25207       43.27132       35.69569
O         44.49195       41.62563       34.81119
H         44.82518       40.76903       34.44275
H         45.18691       41.90523       35.45859
O         44.30826       40.26191       37.93350
H         44.37374       40.03816       38.89578
H         45.24785       40.32844       37.62921
O         40.66826       39.02979       38.56168
H         40.35839       39.10285       39.49941
H         41.65568       39.05910       38.62434
O         41.74229       41.77979       39.27560
H         41.54152       42.05887       40.20323
H         42.65334       42.12567       39.10580

Ca 1.0



