%chk=apoCaM-CA-Ng.loop1.water3.frame216.chk
%nprocshared=20
%mem=10GB
%nosave
#b3lyp/svp scf=(tight,noincore,xqc) Test 
#IOP(5/87=12) Density=Current Pop=(MK,readradii) iop(6/33=2) iop(6/42=6)

apoCaM-CA-Ng.loop1.water3.frame216 

   0  1 
C         16.16257        2.55660       75.66116
C         15.58094        2.47920       77.04068
O         16.07236        1.71374       77.85841
H         17.02915        1.86951       75.55839
H         15.38922        2.27644       74.91610
H         16.50456        3.59391       75.45902
N         14.52888        3.27589       77.37696
C         13.95410        3.29996       78.71834
C         13.17794        2.03437       79.09521
O         12.71686        1.96774       80.21859
C         13.14029        4.59175       78.95212
C         11.86743        4.71996       78.17043
O         10.70988        4.89167       78.83367
O         11.87392        4.73857       76.95031
H         14.19334        3.94573       76.66929
H         14.79669        3.38820       79.43023
H         13.78721        5.46767       78.72614
H         12.88191        4.64140       80.02762
N         13.04035        0.96727       78.26029
C         12.40243       -0.28904       78.65428
C         13.48645       -1.34091       78.83603
O         14.27716       -1.49824       77.91567
C         11.43076       -0.77650       77.54833
C         10.02548       -0.15572       77.54475
C          9.93988        1.35717       77.31711
C          8.45891        1.78523       77.35426
N          8.29328        3.21406       77.10029
H         13.47531        0.99660       77.32850
H         11.84515       -0.19324       79.60018
H         11.23394       -1.85677       77.71991
H         11.91226       -0.69229       76.54996
H          9.53267       -0.41478       78.50300
H          9.44885       -0.65976       76.73768
H         10.39000        1.61356       76.33422
H         10.48743        1.89360       78.12021
H          8.04230        1.54418       78.35750
H          7.87619        1.21840       76.59393
H          7.30032        3.48187       77.29056
H          8.90616        3.76650       77.73380
H          8.52128        3.43138       76.10340
N         13.59434       -2.17022       79.92582
C         12.72983       -2.25350       81.10713
C         11.24531       -2.39900       80.76934
O         10.44632       -1.61393       81.25497
C         13.01561       -1.11866       82.11851
C         14.38120       -1.19015       82.73841
O         15.18360       -2.04793       82.40605
O         14.69789       -0.32971       83.72511
H         14.33955       -2.88377       79.88244
H         12.98986       -3.19026       81.64791
H         12.31863       -1.22899       82.96956
H         12.86529       -0.12343       81.66218
N         10.76330       -3.39590       79.97873
C         11.61589       -4.36993       79.32808
C         10.80343       -5.31762       78.47081
O         10.01728       -4.82934       77.67137
H          9.74185       -3.44287       79.83276
H         12.20365       -4.87908       80.11225
H         12.30468       -3.84700       78.63990
N         10.91714       -6.67617       78.52861
C         11.93123       -7.38757       79.30141
C         11.41924       -7.78994       80.67236
O         10.23373       -7.66733       80.94872
C         12.50818       -8.56905       78.48634
C         11.52469       -9.65672       78.12689
O         10.24006       -9.61287       78.53126
O         11.90279      -10.60003       77.45128
H         10.30907       -7.22067       77.89898
H         12.80756       -6.72944       79.45398
H         13.34438       -9.03400       79.05104
H         12.92746       -8.15790       77.54126
N         12.30067       -8.25255       81.60081
C         11.93464       -8.68509       82.93780
C         11.28144       -7.59859       83.76232
O         10.20343       -7.83566       84.28951
H         13.29882       -8.30920       81.34660
H         12.85947       -9.00119       83.46736
H         11.26371       -9.56945       82.87154
N         11.88731       -6.38909       83.94235
C         11.33676       -5.34852       84.81245
C          9.92205       -4.97354       84.40284
O          9.68077       -4.62997       83.25400
C         12.21593       -4.07631       84.85207
C         13.60232       -4.35313       85.44468
O         11.58049       -3.11300       85.65651
H         12.77810       -6.21737       83.45322
H         11.31164       -5.74579       85.85224
H         12.31405       -3.69104       83.81393
H         11.93303       -2.22611       85.38471
H         13.50395       -4.73107       86.48571
H         14.16476       -5.09484       84.84487
H         14.18952       -3.41072       85.46964
N          8.94376       -4.99339       85.34993
C          7.54583       -4.65428       85.11300
C          7.42607       -3.22773       84.58300
O          6.69870       -3.01140       83.62362
C          6.69633       -4.79645       86.42860
C          6.86061       -6.15540       87.17685
C          5.20064       -4.54587       86.14279
C          6.56809       -7.40248       86.34220
H          9.22909       -5.24292       86.30451
H          7.12344       -5.36461       84.36722
H          7.02827       -4.01400       87.14753
H          6.19350       -6.15675       88.06714
H          7.88669       -6.25880       87.58057
H          4.61230       -4.61045       87.08320
H          5.03621       -3.53277       85.72268
H          4.80010       -5.28888       85.42204
H          7.27132       -7.47298       85.48695
H          6.71176       -8.30298       86.97740
H          5.52424       -7.40599       85.97147
N          8.11003       -2.20743       85.18029
C          7.93401       -0.79021       84.84998
C          9.15357       -0.20543       84.14208
O         10.10314       -0.93347       83.90608
C          7.55590       -0.01075       86.13825
C          8.67156       -0.00901       87.19408
O          6.40093       -0.56886       86.71014
H          8.77771       -2.45494       85.92318
H          7.09341       -0.67338       84.13060
H          7.35623        1.05488       85.88924
H          5.64030       -0.32607       86.11997
H          9.60172        0.43582       86.78233
H          8.35372        0.59424       88.06957
H          8.89422       -1.03045       87.56370
N          9.16379        1.10247       83.73024
C         10.21004        1.70641       82.89408
C         10.98446        2.81003       83.62638
O         10.72130        3.04740       84.79745
C          9.58023        2.17991       81.54841
C          8.51290        3.26784       81.67805
O          8.99594        1.08381       80.90115
H          8.35840        1.69354       83.97788
H         10.97159        0.94425       82.63170
H         10.36651        2.61065       80.89122
H          9.73428        0.61317       80.44264
H          8.92237        4.16588       82.16939
H          8.16334        3.55658       80.66239
H          7.63215        2.91149       82.24788
N         11.98334        3.50538       82.98979
C         12.83435        4.51929       83.61587
C         14.34058        4.23183       83.45552
O         15.11691        4.99957       84.00687
C         12.55952        5.90489       82.98327
C         11.11870        6.38958       83.17471
C         10.91375        7.75890       82.51142
C          9.48957        8.28223       82.73844
N          9.31076        9.59492       82.11748
H         12.13819        3.33316       81.99463
H         12.61609        4.57842       84.70438
H         12.79145        5.86714       81.89932
H         13.23149        6.65981       83.44789
H         10.90379        6.46400       84.26279
H         10.41914        5.66742       82.71801
H         11.10295        7.67121       81.41803
H         11.63620        8.48684       82.94056
H          9.29950        8.36792       83.83145
H          8.75307        7.56757       82.30788
H          9.99025       10.28005       82.52163
H          9.45240        9.52703       81.08340
H          8.33964        9.93405       82.30505
N         14.84407        3.20143       82.70335
C         16.28466        3.00177       82.48901
C         16.91488        4.21614       81.82447
O         16.49706        4.59850       80.74147
C         16.54563        1.73175       81.63317
C         18.01284        1.52333       81.19377
C         19.01573        1.54311       82.31925
O         19.01384        0.61475       83.29518
O         19.87870        2.40617       82.33377
H         14.19593        2.54625       82.24892
H         16.77351        2.83447       83.47225
H         15.93783        1.77251       80.70463
H         16.21392        0.85155       82.20791
H         18.27575        2.33121       80.47573
H         18.09620        0.56095       80.64445
N         17.97391        4.83843       82.41718
C         18.68877        5.95038       81.82482
H         19.74832        5.65585       81.66446
H         18.26312        6.25775       80.84702
H         18.66035        6.81775       82.51562
H         18.32042        4.49066       83.32382
Ca        17.65679       -1.17582       83.38871
O         16.60631       -1.82180       86.75693
H         16.42067       -1.17545       87.48372
H         17.52357       -2.14599       86.94186
O         16.94082       -4.09246       84.57381
H         16.88452       -4.73528       85.32491
H         17.02966       -4.65919       83.76691
O         17.63275        1.05129       85.97107
H         18.38653        0.95233       86.60544
H         17.78185        1.93250       85.54569

Ca 1.0



