%chk=apoCaM-CA-Ng.loop4.water3.frame32.chk
%nprocshared=20
%mem=10GB
%nosave
#b3lyp/svp scf=(tight,noincore,xqc) Test 
#IOP(5/87=12) Density=Current Pop=(MK,readradii) iop(6/33=2) iop(6/42=6)

apoCaM-CA-Ng.loop4.water3.frame32 

   -3  1 
C         59.20199       79.94579       39.47536
C         58.31635       81.14696       39.34859
O         57.14356       81.02911       39.64847
H         60.02414       80.16402       40.18820
H         58.62470       79.07754       39.86625
H         59.62117       79.67957       38.48493
N         58.82116       82.35224       38.95299
C         58.04091       83.58648       38.89128
C         57.24475       83.85335       40.15077
O         56.03997       83.69793       40.12183
C         57.27943       83.82887       37.55596
C         56.49114       82.73754       36.84766
O         55.42488       82.07183       37.34836
O         56.79710       82.49582       35.69019
H         59.83259       82.41420       38.76356
H         58.76064       84.43722       38.87450
H         58.06210       84.13460       36.82213
H         56.63462       84.72473       37.68368
N         57.88095       84.27376       41.28936
C         57.25528       84.61008       42.57535
C         56.52424       85.96257       42.54589
O         56.91015       86.83943       43.30714
C         56.41097       83.43366       43.14338
C         55.80538       83.73924       44.53898
C         57.25298       82.14343       43.19421
C         56.81991       84.04133       45.64820
H         58.90989       84.34270       41.25418
H         58.09517       84.75467       43.29081
H         55.55110       83.24220       42.47170
H         55.21052       82.85809       44.85432
H         55.10870       84.60110       44.45870
H         56.65273       81.30670       43.60037
H         57.58954       81.85070       42.17995
H         58.15638       82.27197       43.82476
H         57.51511       83.19194       45.80151
H         57.40254       84.95701       45.42426
H         56.27747       84.21258       46.60148
N         55.50157       86.23042       41.68788
C         54.85331       87.52975       41.57602
C         53.88882       87.85067       42.71780
O         54.06081       88.91696       43.29100
C         54.12874       87.67046       40.21953
C         55.09861       87.60573       39.06877
O         56.10231       88.50025       38.97859
O         54.97105       86.75822       38.20156
H         55.21042       85.52272       41.01740
H         55.64081       88.31940       41.55651
H         53.62959       88.66317       40.17123
H         53.35842       86.88265       40.10547
N         52.80545       87.09487       43.08673
C         52.50327       85.72971       42.68782
C         51.37323       85.62761       41.68549
O         51.04277       86.63358       41.07405
H         52.16531       87.49736       43.78933
H         52.25972       85.16783       43.61372
H         53.37839       85.24451       42.24826
N         50.73289       84.44857       41.40280
C         50.82703       83.21426       42.19460
C         52.23951       82.65992       42.35268
O         53.10026       83.01739       41.56391
C         49.86941       82.13740       41.61227
C         50.25972       81.70188       40.22395
O         49.50128       81.88744       39.28581
O         51.43294       81.07456       40.01450
H         50.03560       84.47336       40.64125
H         50.47397       83.50160       43.20741
H         48.84060       82.55991       41.59196
H         49.83492       81.22637       42.23963
N         52.58986       81.79995       43.36290
C         51.68373       81.26056       44.37157
C         52.02079       81.72969       45.76487
O         52.98900       82.45017       45.95713
H         53.57638       81.51318       43.43286
H         51.71227       80.15075       44.33331
H         50.64243       81.57270       44.20193
N         51.18367       81.40582       46.79235
C         51.34472       81.94885       48.13896
C         52.50027       81.33283       48.92116
O         52.80283       81.84651       49.98964
C         50.02136       81.87013       48.92860
C         49.55989       80.44291       49.27561
C         48.25238       80.44083       50.03613
N         47.72257       79.27196       50.45421
O         47.66533       81.48561       50.28016
H         50.33976       80.85991       46.56374
H         51.55012       83.03745       48.02333
H         49.23184       82.37511       48.32758
H         50.14268       82.43875       49.87692
H         50.33341       79.95193       49.90355
H         49.42356       79.84091       48.35288
H         48.20832       78.38851       50.26421
H         46.83199       79.25013       50.97212
N         53.19478       80.25030       48.46246
C         54.36137       79.68924       49.14475
C         54.18565       78.21773       49.51356
O         55.15534       77.63689       49.98212
C         55.62944       79.86750       48.25791
C         55.93872       81.35283       48.03193
C         55.52876       79.13290       46.90883
H         52.91031       79.81680       47.57363
H         54.56451       80.22619       50.09878
H         56.49802       79.44278       48.80987
H         55.12211       81.85098       47.47076
H         56.06977       81.86988       49.00676
H         56.88257       81.45923       47.45762
H         55.34030       78.04992       47.06571
H         54.71854       79.55061       46.27700
H         56.48299       79.23424       46.35072
N         53.00129       77.54955       49.36605
C         52.87190       76.11782       49.65743
C         52.22601       75.31535       48.52658
O         52.19396       74.09851       48.66008
C         52.09777       75.88806       50.97892
C         50.66349       76.35864       50.97585
N         49.87753       76.13886       52.05439
O         50.20097       76.93121       50.00413
H         52.16863       78.07936       49.07998
H         53.88140       75.67856       49.81451
H         52.63305       76.39632       51.80970
H         52.09710       74.79720       51.19783
H         50.24488       75.64670       52.88168
H         48.89509       76.45104       52.05878
N         51.63902       75.89191       47.43186
C         50.90271       75.11649       46.43471
C         51.38746       75.38600       45.02750
O         51.41182       76.54415       44.63771
C         49.39760       75.46730       46.46116
C         48.69744       75.17672       47.76504
C         47.91280       76.16999       48.37546
C         48.77755       73.90644       48.36227
C         47.22513       75.89659       49.56169
C         48.10388       73.64336       49.55731
C         47.32321       74.63844       50.15995
O         46.66162       74.39730       51.30911
H         51.63867       76.91561       47.32433
H         50.98604       74.02831       46.63203
H         48.89563       74.84370       45.69128
H         49.25143       76.53440       46.17747
H         47.82158       77.15313       47.92921
H         49.36159       73.11649       47.91070
H         46.61440       76.66369       50.01902
H         48.18408       72.66329       50.00921
H         46.70543       73.54081       51.75705
N         51.62188       74.33973       44.17176
C         51.83799       74.44459       42.72536
C         53.25569       74.82227       42.33440
O         53.82026       74.12620       41.49993
C         50.77763       75.32126       42.01645
C         49.35660       74.78318       42.25522
C         48.32980       75.61910       41.54964
O         47.61206       75.12093       40.69708
O         48.18039       76.91875       41.86966
H         51.49641       73.38443       44.53992
H         51.69177       73.42487       42.29790
H         50.97538       75.30083       40.92165
H         50.84970       76.37982       42.33743
H         49.11836       74.78552       43.33736
H         49.29866       73.73435       41.88771
N         53.90606       75.89279       42.86862
C         55.24174       76.29780       42.43964
C         56.29548       75.22196       42.70514
O         57.40933       75.37643       42.22225
C         55.68380       77.60691       43.14425
C         54.69870       78.79378       43.05491
C         54.47712       79.32283       41.66793
O         54.76627       80.61255       41.41037
O         53.98859       78.62102       40.79793
H         53.43443       76.44447       43.58313
H         55.19703       76.47245       41.34268
H         56.66990       77.92875       42.74061
H         55.81659       77.38149       44.22551
H         55.11691       79.61137       43.67520
H         53.71734       78.54518       43.50028
N         56.03754       74.11805       43.46735
C         57.03028       73.09138       43.69766
H         57.92233       73.52686       44.19476
H         56.60901       72.29902       44.35336
H         57.32753       72.62886       42.73249
H         55.12022       73.99006       43.91592
Ca        54.59611       81.59094       39.38736
O         52.21874       81.58751       36.71629
H         51.72286       81.09689       37.41777
H         51.61306       81.57408       35.93358
O         52.98314       84.06322       38.37607
H         52.40352       84.82816       38.13393
H         53.90553       84.40046       38.25461
O         54.27811       79.07087       37.49511
H         53.59532       79.08933       38.21182
H         55.09633       78.73268       37.93872

Ca 1.0



