%chk=apoCaM-CA-Ng.loop4.water4.frame989.chk
%nprocshared=20
%mem=10GB
%nosave
#b3lyp/svp scf=(tight,noincore,xqc) Test 
#IOP(5/87=12) Density=Current Pop=(MK,readradii) iop(6/33=2) iop(6/42=6)

apoCaM-CA-Ng.loop4.water4.frame989 

   -3  1 
C         54.31483      106.49622       75.86844
C         53.23837      107.48560       76.20433
O         53.28238      108.59683       75.70081
H         55.30036      106.89182       76.17594
H         54.15238      105.52701       76.38472
H         54.32316      106.31685       74.77307
N         52.21695      107.13500       77.03552
C         51.09727      108.00186       77.38663
C         50.36164      108.41893       76.12667
O         50.22192      109.60428       75.85274
C         51.52024      109.22149       78.23530
C         52.34327      108.85648       79.43495
O         53.45271      108.37023       79.28869
O         51.88707      109.11344       80.67535
H         52.20575      106.17940       77.42402
H         50.39524      107.40882       78.01593
H         50.59648      109.74471       78.56977
H         52.10276      109.92868       77.62961
N         49.85472      107.45919       75.31020
C         49.11051      107.74552       74.09461
C         47.68130      107.30530       74.36194
O         47.49657      106.11269       74.56674
C         49.73349      106.95893       72.89154
C         51.20556      107.38242       72.63213
C         48.87910      107.13800       71.61768
C         51.95817      106.45309       71.67722
H         49.96405      106.47081       75.58853
H         49.15687      108.81977       73.85062
H         49.73510      105.87974       73.16311
H         51.77436      107.37870       73.58388
H         51.24318      108.40216       72.21872
H         47.84107      106.78307       71.78581
H         48.84086      108.20675       71.31787
H         49.27606      106.54260       70.77231
H         52.99590      106.82768       71.54451
H         52.00724      105.43046       72.10664
H         51.48812      106.41022       70.67509
N         46.59284      108.13265       74.38453
C         46.53706      109.58473       74.20749
C         45.74074      110.20004       75.35262
O         44.65965      109.70488       75.64226
C         45.85221      109.85942       72.86074
C         45.61601      111.32036       72.61092
O         44.36793      111.75084       72.35563
O         46.53927      112.11757       72.63228
H         45.68104      107.66637       74.51978
H         47.53272      110.06299       74.16943
H         44.87428      109.33234       72.82000
H         46.50031      109.45678       72.05253
N         46.19090      111.30223       76.02593
C         45.47830      111.86551       77.16705
C         44.92838      113.26440       76.96001
O         44.32521      113.75646       77.90368
H         47.07620      111.74732       75.73771
H         46.17351      111.88371       78.03502
H         44.61690      111.22786       77.45423
N         45.09997      113.98665       75.81061
C         44.63045      115.37179       75.68734
C         43.80145      115.67701       74.44125
O         43.25506      116.77127       74.38870
C         45.83844      116.32857       75.80610
C         47.01718      115.94953       74.94034
O         46.92703      115.90565       73.72730
O         48.19221      115.63915       75.51961
H         45.65870      113.58442       75.04469
H         43.94912      115.62183       76.53056
H         46.18993      116.28642       76.85902
H         45.52366      117.37614       75.60417
N         43.66482      114.81493       73.39425
C         42.90308      115.14254       72.19012
C         43.47205      116.30170       71.37463
O         42.88317      116.62055       70.35194
H         44.10709      113.89212       73.44258
H         41.85298      115.37407       72.47424
H         42.88437      114.25183       71.52428
N         44.60638      116.97006       71.74595
C         45.21373      118.08317       71.02844
C         45.80055      117.67782       69.68275
O         46.22949      118.56167       68.95605
C         44.27078      119.30980       70.96929
C         43.93773      119.79922       72.39305
C         43.15398      121.08573       72.38856
N         41.94253      121.16279       72.98726
O         43.63170      122.08003       71.86228
H         45.08896      116.69533       72.59717
H         46.10140      118.42744       71.60649
H         43.34036      119.08943       70.40543
H         44.80350      120.13174       70.44227
H         44.88332      119.98930       72.94646
H         43.37509      119.01006       72.93419
H         41.52674      120.34247       73.45164
H         41.42175      122.05245       72.99777
N         45.96329      116.36349       69.33375
C         46.62459      115.94216       68.09555
C         47.93494      115.19007       68.35849
O         48.65370      114.92906       67.40109
C         45.65464      115.08505       67.23264
C         45.29010      113.74180       67.89740
C         44.37203      115.86849       66.91531
H         45.63716      115.63136       69.97580
H         46.90533      116.83894       67.50253
H         46.16054      114.85569       66.26868
H         46.20084      113.13607       68.08802
H         44.75338      113.88866       68.85759
H         44.63037      113.15202       67.22623
H         44.61929      116.82165       66.40283
H         43.71131      115.27336       66.25011
H         43.80856      116.09998       67.84421
N         48.28467      114.75988       69.60390
C         49.44611      113.92797       69.89714
C         50.07686      114.34036       71.22041
O         49.34662      114.58489       72.17282
C         48.95579      112.46858       70.01348
C         50.00778      111.55206       70.58673
N         49.79483      110.95079       71.77961
O         51.06690      111.38533       69.99969
H         47.62536      114.90204       70.38110
H         50.20692      113.94795       69.08316
H         48.63157      112.09618       69.01749
H         48.07197      112.44864       70.67964
H         48.91601      111.08704       72.29706
H         50.52306      110.37530       72.21191
N         51.43071      114.27566       71.39038
C         52.07663      114.39016       72.69886
C         53.58231      114.29181       72.55525
O         54.06652      113.25439       72.11919
C         51.58392      113.23451       73.61776
C         52.27981      113.10880       74.95334
C         52.26108      114.15453       75.89001
C         52.93053      111.90694       75.28335
C         52.87551      113.99399       77.13891
C         53.53935      111.75310       76.52874
C         53.50741      112.79005       77.46524
O         54.07508      112.63565       78.67908
H         52.01684      114.05480       70.56826
H         51.81895      115.37197       73.15122
H         51.72047      112.28396       73.06011
H         50.50179      113.33853       73.82600
H         51.76499      115.08737       75.65876
H         52.95647      111.08064       74.58310
H         52.85227      114.80111       77.85890
H         54.02869      110.82144       76.77507
H         54.49880      111.80635       78.94580
N         54.38640      115.32457       72.94400
C         55.83827      115.22668       72.96712
C         56.31895      115.46312       74.39142
O         56.29675      116.61029       74.81786
C         56.49607      116.24367       72.01050
C         56.14297      115.98197       70.54159
C         56.85971      116.95375       69.64649
O         56.63510      118.27675       69.76397
O         57.64952      116.54908       68.80810
H         53.95409      116.19815       73.28289
H         56.15042      114.23201       72.62404
H         57.60122      116.16422       72.11990
H         56.18949      117.27747       72.28773
H         55.04844      116.08570       70.38393
H         56.44415      114.94484       70.27451
N         56.72492      114.46860       75.23778
C         56.65620      113.03497       74.96665
C         57.56326      112.59784       73.83706
O         58.75362      112.87716       73.86186
C         56.97170      112.22228       76.24504
C         56.86628      110.70739       75.97425
C         56.86002      109.85242       77.20745
O         56.83347      110.37990       78.44430
O         56.82018      108.64073       77.08340
H         57.02053      114.75907       76.18402
H         55.60300      112.78975       74.70811
H         56.22926      112.51861       77.01343
H         57.98452      112.45856       76.63936
H         57.71651      110.40011       75.32884
H         55.92326      110.48819       75.42992
N         57.04547      111.83483       72.83314
C         57.84262      111.32683       71.74335
H         58.66867      110.69981       72.14022
H         57.20882      110.69644       71.08227
H         58.25282      112.16973       71.15085
H         56.04709      111.57541       72.85692
Ca        56.52066      108.91346       80.14110
O         59.39464      109.60494       80.30750
H         59.22705      109.89234       81.24012
H         59.17473      110.40056       79.76086
O         56.71076      108.13669       83.23945
H         56.53215      107.25615       83.65546
H         56.24323      108.78484       83.82363
O         55.86362      111.28081       81.76336
H         56.79283      111.53885       81.53817
H         55.90112      111.02932       82.71996
O         54.53332      106.58226       81.51044
H         53.65283      106.55436       81.06011
H         54.31548      106.77406       82.45659

Ca 1.0



