%chk=apoCaM-CA-Ng.loop1.water2.frame1130.chk
%nprocshared=20
%mem=10GB
%nosave
#b3lyp/svp scf=(tight,noincore,xqc) Test 
#IOP(5/87=12) Density=Current Pop=(MK,readradii) iop(6/33=2) iop(6/42=6)

apoCaM-CA-Ng.loop1.water2.frame1130 

   0  1 
C        104.72796       56.99998       69.39205
C        105.61473       57.69882       68.40629
O        105.61940       58.92202       68.40081
H        103.66792       57.26303       69.18862
H        104.84088       55.89822       69.33171
H        104.99041       57.33092       70.41892
N        106.37034       56.99004       67.51370
C        107.22717       57.63396       66.52304
C        106.60589       57.52251       65.14478
O        107.23792       57.06973       64.20092
C        108.68986       57.14024       66.60461
C        108.87586       55.68079       66.27380
O        108.32725       54.72386       67.04522
O        109.56008       55.35647       65.31611
H        106.28622       55.96440       67.50651
H        107.26573       58.71432       66.72846
H        109.08724       57.32976       67.62450
H        109.29216       57.74876       65.89271
N        105.32989       57.96104       64.97465
C        104.63606       57.95330       63.69740
C        105.16427       59.03131       62.75176
O        105.47789       58.66866       61.62519
C        103.10235       58.01598       63.88486
C        102.63289       56.81715       64.73901
C        101.11262       56.64887       64.77007
C        100.74310       55.44156       65.64958
N         99.30450       55.18711       65.63085
H        104.81783       58.29110       65.80519
H        104.79791       56.96168       63.21407
H        102.63780       57.93833       62.87667
H        102.77097       58.96904       64.34750
H        103.00792       56.93016       65.77881
H        103.05839       55.88081       64.31400
H        100.75112       56.47438       63.73281
H        100.63054       57.56605       65.17162
H        101.07193       55.63399       66.69580
H        101.27131       54.53264       65.28238
H         99.09567       54.37523       66.25645
H         98.78322       56.02556       65.97410
H         98.99870       54.94919       64.65926
N        105.34474       60.35293       63.07302
C        105.22545       60.93400       64.41102
C        106.58551       60.84095       65.11103
O        107.51309       60.32465       64.50895
C        104.69557       62.38911       64.31994
C        105.71084       63.35870       63.77268
O        106.86042       63.51336       64.45481
O        105.48355       64.01480       62.77198
H        105.77629       60.94887       62.34886
H        104.47564       60.37455       64.99767
H        104.43583       62.74121       65.34022
H        103.76252       62.40489       63.71440
N        106.78521       61.33207       66.37452
C        108.07727       61.22332       67.05670
C        108.69301       62.56750       67.35752
O        108.09921       63.58542       67.07141
H        106.00690       61.78637       66.87043
H        108.81141       60.66389       66.44106
H        107.93961       60.66827       68.00792
N        109.93494       62.62269       67.92269
C        110.63542       63.87300       68.23965
C        110.95887       63.89973       69.72953
O        110.73093       62.89406       70.38528
C        111.89634       63.94846       67.34490
C        111.45497       63.99072       65.90949
O        110.68719       65.01800       65.49635
O        111.68721       63.05542       65.16111
H        110.42045       61.73438       68.11538
H        109.98165       64.74364       68.02754
H        112.53150       63.05314       67.53147
H        112.50675       64.84614       67.53548
N        111.45250       64.98878       70.39408
C        111.75096       66.30868       69.86191
C        110.53458       67.04492       69.34356
O        109.51455       67.06604       70.01760
H        111.62383       64.87097       71.40624
H        112.57192       66.27918       69.12141
H        112.13675       66.92062       70.70630
N        110.62152       67.77819       68.19794
C        109.54065       68.62601       67.69345
C        108.42126       67.79240       67.09854
O        108.69659       66.82962       66.40139
C        110.06511       69.63779       66.64881
C        111.05478       70.62415       67.28936
O        108.98182       70.36981       66.13462
H        111.52951       67.79692       67.70766
H        109.13562       69.24694       68.52515
H        110.56441       69.07593       65.82684
H        109.27293       70.73086       65.25822
H        111.93891       70.10151       67.70748
H        111.40746       71.35381       66.53083
H        110.55711       71.18893       68.10871
N        107.12235       68.15092       67.31950
C        105.93879       67.43013       66.85450
C        105.81805       67.37597       65.32888
O        106.68004       66.82755       64.65773
C        105.86252       66.00519       67.46585
C        106.09521       65.98660       69.00045
C        104.53638       65.30708       67.10579
C        105.10643       66.82238       69.81832
H        106.94710       68.99218       67.89025
H        105.05594       67.98183       67.24436
H        106.66874       65.40910       67.01488
H        107.11642       66.36023       69.21749
H        106.05466       64.93451       69.35768
H        103.66493       65.87123       67.49698
H        104.42109       65.21963       66.00548
H        104.51928       64.27861       67.52493
H        105.36283       66.73804       70.89522
H        105.16802       67.89474       69.54118
H        104.06673       66.46379       69.68223
N        104.68153       67.83967       64.73634
C        104.34657       67.63550       63.32525
C        105.16015       68.46824       62.33533
O        104.86737       68.36964       61.15060
C        102.82349       67.88061       63.10178
C        102.39530       69.33987       63.31024
O        102.07553       67.06312       63.96619
H        103.95784       68.23042       65.35608
H        104.51186       66.56235       63.08304
H        102.55931       67.62528       62.04824
H        102.12341       66.13919       63.60501
H        101.30476       69.43461       63.12178
H        102.59489       69.68490       64.34474
H        102.92453       70.00879       62.60085
N        106.17403       69.30207       62.71017
C        106.85168       70.19006       61.76740
C        108.27250       69.73704       61.48948
O        109.04064       69.51675       62.41401
C        106.83585       71.65081       62.27388
C        105.41304       72.19910       62.38517
O        107.46598       71.75630       63.52479
H        106.47054       69.33858       63.69479
H        106.31796       70.20587       60.79158
H        107.35625       72.29525       61.52376
H        108.41790       71.98027       63.35388
H        105.44701       73.26026       62.71181
H        104.90699       72.15460       61.39669
H        104.82203       71.61855       63.12348
N        108.69448       69.66057       60.19288
C        110.04511       69.34542       59.74490
C        110.37440       67.88422       59.97998
O        111.36280       67.57532       60.63150
C        111.10055       70.32648       60.31961
C        110.68229       71.79383       60.12610
C        111.81871       72.76569       60.46314
C        111.33184       74.21906       60.35822
N        112.43748       75.16125       60.52480
H        108.02372       69.90167       59.44695
H        110.06264       69.48261       58.63954
H        112.05892       70.13497       59.78803
H        111.27151       70.15096       61.40382
H        109.80720       72.00463       60.77858
H        110.38695       71.96355       59.06801
H        112.64736       72.59573       59.74111
H        112.19849       72.58416       61.49265
H        110.56293       74.40265       61.14272
H        110.86358       74.39127       59.36387
H        112.91238       75.01166       61.44406
H        113.12539       75.03827       59.74613
H        112.06263       76.13688       60.48800
N        109.56948       66.92421       59.43599
C        109.81606       65.49015       59.56795
C        108.74460       64.81637       60.41463
O        109.12759       64.28460       61.44599
C        109.97968       64.78126       58.20394
C        111.17440       65.30798       57.40247
C        111.31942       64.53939       56.11829
O        111.24792       65.11521       55.04458
O        111.53052       63.20874       56.14624
H        108.75048       67.24612       58.90656
H        110.77884       65.32884       60.10497
H        109.07491       64.87024       57.57633
H        110.14308       63.69802       58.40156
H        112.10728       65.18860       57.99394
H        111.02812       66.38749       57.18029
N        107.41135       64.73389       60.11865
C        106.70753       65.27896       58.97656
H        105.91374       65.96633       59.33711
H        107.33400       65.83742       58.27437
H        106.22817       64.44816       58.41789
H        106.81989       64.21567       60.78048
Ca       108.81658       64.62187       64.29639
O        109.87641       61.84178       63.02078
H        110.69578       61.35396       63.28578
H        109.39506       61.99362       63.87192
O        110.64583       67.16169       63.51880
H        109.87187       67.49844       64.03586
H        111.43767       67.51847       63.99412

Ca 1.0



