%chk=apoCaM-CA-Ng.loop4.water2.frame298.chk
%nprocshared=20
%mem=10GB
%nosave
#b3lyp/svp scf=(tight,noincore,xqc) Test 
#IOP(5/87=12) Density=Current Pop=(MK,readradii) iop(6/33=2) iop(6/42=6)

apoCaM-CA-Ng.loop4.water2.frame298 

   -3  1 
C         87.52262       44.11921       21.97127
C         88.92687       43.60382       22.04943
O         89.68496       44.10153       22.86622
H         86.81184       43.30021       22.20501
H         87.36839       44.94255       22.70349
H         87.32225       44.50853       20.95192
N         89.33746       42.58350       21.23867
C         90.68167       42.01352       21.26022
C         91.01843       41.45317       22.61748
O         91.72642       42.10663       23.34399
C         91.76951       42.94714       20.64068
C         91.83213       44.42812       21.00048
O         92.17604       44.93953       22.21081
O         91.60085       45.22835       20.10723
H         88.65067       42.16718       20.59160
H         90.70297       41.12718       20.58505
H         91.55903       42.92348       19.54628
H         92.77197       42.48444       20.76832
N         90.51488       40.24955       23.02819
C         90.74724       39.61390       24.33324
C         92.17461       39.03841       24.44937
O         92.29219       37.82266       24.51902
C         90.28227       40.53453       25.50412
C         90.39671       39.86890       26.89971
C         88.83966       41.02876       25.25656
C         89.52418       38.62703       27.10975
H         89.88351       39.75349       22.37996
H         90.07599       38.72669       24.35459
H         90.93058       41.43059       25.53982
H         90.10408       40.61724       27.66925
H         91.45597       39.59390       27.08655
H         88.77745       41.62749       24.32462
H         88.13180       40.18018       25.15702
H         88.49979       41.67896       26.08497
H         89.67078       38.25076       28.14352
H         88.44754       38.86682       26.99103
H         89.80365       37.81565       26.40881
N         93.29849       39.81337       24.41079
C         94.65223       39.27462       24.29594
C         95.16694       38.59588       25.57600
O         95.47650       37.41767       25.46566
C         95.61570       40.33930       23.71703
C         95.30146       40.74206       22.29488
O         94.36268       40.25399       21.68442
O         96.08346       41.65108       21.68214
H         93.20739       40.82461       24.34657
H         94.64304       38.48360       23.50910
H         96.64976       39.93083       23.71701
H         95.57183       41.26503       24.30883
N         95.29503       39.16341       26.81993
C         94.91121       40.50464       27.21849
C         95.90114       41.58208       26.80209
O         96.92367       41.24800       26.22061
H         95.60929       38.54449       27.58413
H         94.87200       40.54704       28.32795
H         93.88884       40.66235       26.84587
N         95.71015       42.91345       27.07141
C         94.61775       43.46732       27.87252
C         93.23789       43.02106       27.35044
O         93.10772       42.72492       25.98375
C         94.77206       45.00290       28.05597
C         94.64197       45.82476       26.81002
O         95.68062       46.56705       26.38233
O         93.57287       45.89733       26.23112
H         96.42281       43.57126       26.71708
H         94.71542       43.03631       28.89152
H         95.77262       45.18777       28.50273
H         94.02589       45.39465       28.77368
N         92.00357       43.45627       28.01245
C         92.03409       43.36387       29.48488
C         92.22150       41.97206       30.06066
O         92.33854       40.99586       29.33399
H         91.22329       42.85131       27.66849
H         91.06324       43.74939       29.86553
H         92.81581       44.01985       29.90538
N         92.19987       41.83972       31.41760
C         92.21552       40.57060       32.13767
C         90.83816       40.25118       32.70625
O         90.67242       39.19379       33.29404
C         93.32664       40.51802       33.21752
C         93.13947       41.30732       34.53585
C         93.11155       42.80937       34.41174
N         94.20627       43.54851       34.70388
O         92.07600       43.37472       34.10136
H         92.06436       42.70328       31.94725
H         92.44523       39.75415       31.41726
H         94.29722       40.79325       32.75088
H         93.41147       39.45322       33.53219
H         94.01334       41.03787       35.16904
H         92.24232       40.96609       35.09743
H         95.09011       43.10023       34.98449
H         94.17235       44.57660       34.63611
N         89.78462       41.09363       32.48658
C         88.40387       40.79570       32.83421
C         87.79876       41.90255       33.69010
O         86.58718       41.88766       33.88364
C         87.59814       40.55888       31.52074
C         88.16346       39.34523       30.76111
C         87.56278       41.78304       30.58647
H         89.92859       41.97049       31.97463
H         88.32452       39.85392       33.42084
H         86.54987       40.31302       31.80091
H         88.15403       38.44489       31.41264
H         87.54931       39.12755       29.86254
H         89.20868       39.53046       30.43121
H         88.57490       42.04799       30.21541
H         86.93270       41.55986       29.69961
H         87.12671       42.66106       31.10620
N         88.56575       42.85726       34.29357
C         87.99351       43.88462       35.14956
C         87.34649       44.98970       34.33141
O         86.16518       45.23417       34.52115
C         89.04336       44.51006       36.09882
C         89.64958       43.49903       37.04360
N         90.99134       43.34576       37.12726
O         88.92117       42.83037       37.76212
H         89.59192       42.80336       34.21967
H         87.23037       43.41687       35.81578
H         88.53276       45.27572       36.72381
H         89.84272       45.01903       35.51927
H         91.62560       43.92400       36.55974
H         91.40164       42.66241       37.78087
N         88.09202       45.76076       33.47612
C         87.58505       47.00928       32.90171
C         87.73172       47.11581       31.38761
O         88.45026       46.34400       30.77208
C         88.43255       48.16569       33.47703
C         88.44370       48.25201       34.97761
C         87.28969       48.63200       35.67693
C         89.62854       47.99273       35.68763
C         87.32514       48.76641       37.06810
C         89.65853       48.11448       37.07767
C         88.51171       48.50963       37.77259
O         88.56396       48.64666       39.11229
H         89.08557       45.52789       33.33301
H         86.51441       47.15071       33.16351
H         88.08373       49.14601       33.09492
H         89.47648       48.01801       33.11521
H         86.37260       48.84669       35.14256
H         90.53107       47.69629       35.16661
H         86.43326       49.07863       37.59557
H         90.57793       47.91138       37.61240
H         87.80044       48.94064       39.62874
N         87.13117       48.17965       30.76572
C         87.37803       48.67475       29.41170
C         87.05254       47.74717       28.25347
O         87.20767       48.21557       27.13311
C         88.82033       49.21814       29.27904
C         89.07354       50.40012       30.22741
C         90.42950       50.99791       29.99346
O         91.53768       50.25461       30.17219
O         90.53379       52.16335       29.64453
H         86.50473       48.76680       31.33750
H         86.70558       49.55059       29.25817
H         88.96207       49.60514       28.24534
H         89.56132       48.40786       29.45021
H         89.00814       50.07312       31.28059
H         88.29901       51.18085       30.05305
N         86.56428       46.47963       28.38913
C         86.24230       45.65810       27.22083
C         84.74343       45.44006       27.08529
O         84.33255       44.91763       26.05757
C         86.97406       44.30228       27.28615
C         88.49624       44.38733       27.50032
C         89.24098       45.02613       26.35998
O         90.06001       44.37771       25.73058
O         89.05145       46.32177       26.05233
H         86.38754       46.09143       29.32500
H         86.54949       46.17532       26.28722
H         86.76834       43.72222       26.35806
H         86.55633       43.73197       28.14381
H         88.86504       43.34818       27.62797
H         88.72495       44.93048       28.43985
N         83.86376       45.81062       28.06278
C         82.42930       45.65088       27.94814
H         82.12159       45.26304       26.95486
H         82.07432       44.94838       28.73052
H         81.94278       46.63672       28.10268
H         84.20218       46.21539       28.94565
Ca        92.70970       44.23366       24.30953
O         95.63535       44.42176       23.52591
H         95.98738       44.93171       24.29723
H         95.11700       45.08680       23.00664
O         91.02458       47.14946       23.72539
H         91.15000       48.10227       23.96232
H         90.51038       47.16846       22.87918

Ca 1.0



