%chk=apoCaM-CA-Ng.loop2.water4.frame175.chk
%nprocshared=20
%mem=10GB
%nosave
#b3lyp/svp scf=(tight,noincore,xqc) Test 
#IOP(5/87=12) Density=Current Pop=(MK,readradii) iop(6/33=2) iop(6/42=6)

apoCaM-CA-Ng.loop2.water4.frame175 

   -2  1 
C         86.61183       50.03284       21.04262
C         88.03764       50.16641       21.49410
O         88.49207       49.33751       22.26994
H         85.93804       50.06981       21.92415
H         86.32732       50.85202       20.34839
H         86.47523       49.06389       20.51857
N         88.81376       51.19204       21.04143
C         90.21123       51.36396       21.43000
C         90.37919       51.75470       22.90426
O         91.51670       51.88789       23.31741
C         90.86277       52.43752       20.52214
C         92.35470       52.53267       20.70010
O         92.91594       53.68821       21.10403
O         93.06363       51.56479       20.47293
H         88.40431       51.84838       20.35785
H         90.73464       50.40021       21.23784
H         90.39323       53.42559       20.72503
H         90.67766       52.17852       19.45708
N         89.31276       51.99473       23.73088
C         89.36240       52.45647       25.12128
C         89.95155       51.45344       26.11066
O         89.19096       50.92944       26.90930
C         90.02678       53.83216       25.23561
H         88.36318       51.90380       23.34698
H         88.30117       52.60318       25.43167
H         89.50771       54.55355       24.56906
H         89.95084       54.20332       26.27998
H         91.09753       53.79791       24.95103
N         91.28504       51.17294       26.16658
C         91.88909       50.26758       27.14034
C         92.49428       49.03700       26.47308
O         93.10276       48.23779       27.17163
C         92.92299       51.02767       28.00765
C         94.12570       51.54475       27.25815
O         94.00764       52.39978       26.39562
O         95.35442       51.09450       27.57560
H         91.91913       51.63515       25.51370
H         91.12058       49.88491       27.84727
H         93.28130       50.33693       28.80208
H         92.42142       51.88091       28.51459
N         92.31763       48.78084       25.14237
C         92.82282       47.59250       24.47315
C         92.29585       46.33064       25.11383
O         93.08907       45.47621       25.48388
H         91.77009       49.43166       24.56274
H         93.93468       47.59431       24.48501
H         92.48870       47.61448       23.41336
N         90.96074       46.17221       25.32735
C         90.41313       45.01829       26.03110
C         90.39398       43.79389       25.13111
O         89.74470       43.81090       24.09489
C         89.00857       45.33995       26.57824
C         89.07525       46.47874       27.57382
N         89.78417       46.35698       28.72300
O         88.48821       47.52295       27.33716
H         90.33066       46.94714       25.06610
H         91.04918       44.80847       26.91837
H         88.58647       44.45083       27.09514
H         88.33388       45.60716       25.73484
H         90.28073       45.48408       28.95311
H         89.83676       47.13875       29.39247
N         91.10191       42.68592       25.48668
C         91.16966       41.45735       24.71139
C         89.84400       40.73599       24.63088
O         89.14846       40.65528       25.63422
H         91.64898       42.71148       26.36070
H         91.86440       40.76905       25.23944
H         91.59648       41.64721       23.70296
N         89.48627       40.07814       23.48734
C         88.27737       39.25604       23.40188
C         87.01119       40.09813       23.26493
O         85.92911       39.52943       23.29473
C         88.37830       38.19359       22.26835
C         88.37277       38.76484       20.84204
O         89.49888       37.36629       22.47064
H         90.14648       40.09274       22.69659
H         88.20511       38.66630       24.34377
H         87.48274       37.53731       22.33695
H         90.31027       37.86400       22.19025
H         87.41887       39.28960       20.65121
H         89.21961       39.46060       20.67236
H         88.44510       37.93389       20.10857
N         87.07067       41.45172       23.09633
C         85.90165       42.31824       22.95998
C         85.87827       43.31315       24.11261
O         86.76810       43.27066       24.95183
C         85.91528       43.02875       21.56427
C         87.13475       43.97877       21.39024
C         85.85233       41.97777       20.44295
C         87.14044       44.74313       20.06497
H         87.98951       41.90933       23.06401
H         84.96194       41.72647       23.02560
H         84.99016       43.63826       21.48086
H         88.08846       43.41574       21.45463
H         87.11961       44.73354       22.20473
H         84.98968       41.29515       20.59751
H         85.71520       42.45133       19.45035
H         86.78793       41.38902       20.41944
H         88.00644       45.43808       20.04666
H         87.25427       44.05335       19.20368
H         86.20657       45.33197       19.95050
N         84.90049       44.26169       24.20034
C         84.89772       45.30104       25.22458
C         83.59177       45.31325       26.03053
O         83.43183       46.19153       26.86639
C         85.19684       46.64240       24.51764
C         85.59086       47.76911       25.43964
O         85.89960       48.84909       24.96276
O         85.67005       47.59384       26.77278
H         84.16874       44.29891       23.47507
H         85.72954       45.13274       25.94280
H         84.33290       46.93795       23.88435
H         86.07669       46.48867       23.85296
N         82.63310       44.34664       25.88987
C         81.42564       44.32497       26.71416
C         80.50442       45.48704       26.34888
O         80.08720       45.52563       25.20113
C         80.63687       43.00991       26.50578
C         79.40105       42.99435       27.37872
C         79.51758       42.91783       28.77735
C         78.12353       43.09826       26.80180
C         78.37664       42.95620       29.58394
C         76.98553       43.14234       27.61249
C         77.11185       43.07296       29.00225
H         82.78574       43.57097       25.22925
H         81.74978       44.35233       27.77239
H         81.26639       42.12387       26.73818
H         80.35056       42.94029       25.43249
H         80.49205       42.83779       29.24286
H         78.00884       43.16932       25.72740
H         78.47397       42.90345       30.66053
H         76.00581       43.23860       27.16297
H         76.23002       43.11223       29.62829
N         80.07709       46.43404       27.24577
C         79.08482       47.45815       26.92371
C         79.47856       48.47843       25.86123
O         78.66846       49.35456       25.59163
C         78.84969       48.17016       28.26178
C         79.08569       47.05200       29.25187
C         80.33970       46.40993       28.67163
H         78.15574       46.92925       26.61023
H         79.65752       48.91937       28.43261
H         77.86637       48.68180       28.34302
H         79.17858       47.37149       30.31111
H         78.24126       46.32792       29.16580
H         81.23632       47.03407       28.88056
H         80.44583       45.40374       29.11453
N         80.68445       48.44459       25.22091
C         81.10315       49.43403       24.23168
C         81.24058       48.82194       22.84143
O         81.54891       49.56165       21.91697
C         82.46907       50.00470       24.65166
C         82.47060       50.63994       26.04863
C         83.88691       50.91706       26.45461
O         84.58359       51.68301       25.80736
O         84.41407       50.23897       27.49164
H         81.36142       47.70403       25.44520
H         80.35964       50.25787       24.15765
H         82.82354       50.75493       23.91025
H         83.18664       49.15488       24.65381
H         82.04744       49.92465       26.78612
H         81.85849       51.56712       26.06577
N         81.03949       47.49183       22.61017
C         81.17647       46.86802       21.31132
H         81.44914       47.59282       20.51727
H         81.96576       46.08837       21.36492
H         80.21568       46.38457       21.03641
H         80.78666       46.86664       23.37920
Ca        86.63334       50.22236       27.88964
O         87.11479       47.80855       30.23770
H         87.89714       47.89348       30.83862
H         86.66748       46.97503       30.52984
O         87.13858       53.15240       28.05016
H         87.43950       54.00730       27.65331
H         86.34643       52.89873       27.51358
O         88.92938       50.70467       29.94979
H         89.61566       50.00575       30.09381
H         89.43867       51.49084       29.62867
O         85.21688       50.46711       30.42209
H         85.73491       51.31047       30.38456
H         85.16165       50.24913       31.38548

Ca 1.0



