%chk=apoCaM-CA-Ng.loop4.water3.frame362.chk
%nprocshared=20
%mem=10GB
%nosave
#b3lyp/svp scf=(tight,noincore,xqc) Test 
#IOP(5/87=12) Density=Current Pop=(MK,readradii) iop(6/33=2) iop(6/42=6)

apoCaM-CA-Ng.loop4.water3.frame362 

   -3  1 
C         73.21422       81.52139       49.98732
C         73.76183       80.98880       51.30606
O         73.03994       81.57310       52.33261
H         72.13349       81.27806       49.89497
H         73.33250       82.62629       49.95891
H         73.76733       81.08321       49.13232
N         73.61967       79.53001       51.38874
C         74.16846       78.94978       52.63492
C         73.36462       79.36843       53.86784
O         73.90611       79.99891       54.75678
C         75.71634       79.10118       52.73755
C         76.26574       80.50458       52.78985
O         75.99389       81.31579       53.82714
O         77.00378       80.90092       51.90163
H         74.11439       79.09907       50.57319
H         74.01842       77.84880       52.57403
H         76.15231       78.59430       51.84769
H         76.07515       78.55321       53.63511
N         72.05660       78.97974       53.97788
C         71.14666       79.19098       55.11452
C         71.75020       78.62681       56.40261
O         71.40707       77.51121       56.76749
C         70.61052       80.65308       55.24012
C         69.53792       80.80131       56.35970
C         70.03519       81.16490       53.90693
C         68.25161       79.98703       56.16633
H         71.67936       78.41257       53.20258
H         70.25916       78.56587       54.87461
H         71.45735       81.32533       55.49504
H         69.25104       81.87206       56.43222
H         69.96756       80.50014       57.33204
H         70.80328       81.15287       53.11600
H         69.19297       80.53656       53.55507
H         69.68438       82.21463       54.01847
H         67.56311       80.18676       57.01440
H         67.72329       80.27340       55.23513
H         68.46052       78.89849       56.15550
N         72.67308       79.32722       57.12627
C         73.46408       78.74911       58.20497
C         72.85608       78.96147       59.59288
O         72.74801       77.97340       60.30509
C         74.92340       79.26483       58.11511
C         75.83137       78.58856       59.10512
O         76.48243       79.31713       60.03200
O         75.99634       77.37965       59.06312
H         72.91986       80.27920       56.82775
H         73.55063       77.65111       58.03224
H         74.97498       80.35751       58.27582
H         75.32034       79.06551       57.09586
N         72.46879       80.16984       60.10445
C         72.37593       81.39227       59.32750
C         71.93468       82.58724       60.15463
O         71.00416       82.42765       60.93203
H         72.15835       80.19061       61.08875
H         71.60251       81.24066       58.55831
H         73.31101       81.58257       58.81544
N         72.44377       83.85320       60.00207
C         73.45426       84.28469       59.03226
C         73.01356       83.88859       57.62315
O         73.70646       83.11533       56.97624
C         74.87469       83.79261       59.42019
C         75.33345       84.29539       60.76624
O         76.44835       84.00096       61.16543
O         74.54224       85.06785       61.53720
H         72.01719       84.59898       60.57453
H         73.53073       85.39382       59.05717
H         75.59207       84.17004       58.66097
H         74.95604       82.69275       59.43570
N         71.83857       84.31878       57.07642
C         70.97989       85.34903       57.63866
C         69.71657       84.79397       58.23532
O         69.56551       83.58606       58.34879
H         71.54662       83.91744       56.17159
H         70.73779       86.06989       56.82932
H         71.48153       85.92708       58.43748
N         68.76197       85.66208       58.66971
C         67.54934       85.25371       59.36566
C         66.30486       85.38719       58.49939
O         65.24819       84.98435       58.96568
C         67.46218       85.94735       60.75015
C         67.58690       87.48437       60.77081
C         66.47833       88.19580       60.05238
N         65.19995       88.07224       60.47269
O         66.73937       88.91706       59.10134
H         68.90659       86.66615       58.48744
H         67.58943       84.16288       59.58331
H         68.31224       85.56562       61.35752
H         66.53014       85.63042       61.26632
H         68.56877       87.78636       60.35041
H         67.57890       87.82497       61.82862
H         64.96364       87.48472       61.28476
H         64.44564       88.58095       59.99684
N         66.36445       85.80827       57.19813
C         65.24941       85.63899       56.26384
C         64.75626       86.93822       55.64557
O         63.82932       86.85255       54.84918
C         65.63566       84.61113       55.15483
C         65.98364       83.24166       55.76087
C         66.79206       85.09443       54.27032
H         67.25462       86.15535       56.81860
H         64.36726       85.21043       56.78845
H         64.75147       84.46145       54.49574
H         66.19808       82.50825       54.95406
H         66.87783       83.30786       56.41713
H         65.12893       82.85782       56.35695
H         67.71441       85.21248       54.86612
H         66.99547       84.35560       53.46598
H         66.54370       86.06430       53.79116
N         65.26197       88.16705       55.96710
C         64.71039       89.39871       55.40398
C         65.73609       90.27965       54.70387
O         65.30142       91.27666       54.14661
C         63.99642       90.20238       56.51145
C         62.82891       89.44532       57.09958
N         61.77996       89.07277       56.32870
O         62.82029       89.17995       58.28992
H         66.00718       88.24340       56.67383
H         63.95662       89.16581       54.62181
H         63.59511       91.15148       56.09481
H         64.72956       90.45787       57.30897
H         61.75189       89.29687       55.32408
H         60.98580       88.56093       56.74122
N         67.07844       90.00408       54.64910
C         68.01475       90.90161       53.95281
C         69.41002       90.31769       53.78817
O         69.76626       89.37578       54.47588
C         68.06568       92.29538       54.63137
C         68.33214       92.22492       56.12166
C         69.62514       92.01013       56.62671
C         67.26624       92.38744       57.02656
C         69.84695       91.97129       58.00930
C         67.48640       92.33028       58.40443
C         68.77601       92.12942       58.90224
O         68.97247       92.09470       60.23599
H         67.43057       89.14001       55.08197
H         67.63654       91.01553       52.91255
H         67.08155       92.78057       54.48630
H         68.78700       92.97979       54.13498
H         70.46337       91.89110       55.95605
H         66.25772       92.54719       56.66656
H         70.85084       91.82096       58.38606
H         66.65245       92.44753       59.08556
H         69.84972       91.97362       60.62598
N         70.22523       90.81154       52.80015
C         71.55322       90.29674       52.45395
C         71.54995       88.85721       51.95131
O         72.63213       88.35878       51.67002
C         72.55097       90.47704       53.62478
C         72.84251       91.95559       53.92649
C         73.53311       92.62936       52.76972
O         73.02107       93.59243       52.22232
O         74.72101       92.16871       52.33033
H         69.87326       91.59453       52.22928
H         71.94453       90.88273       51.59343
H         73.52364       89.99799       53.37465
H         72.16958       89.97260       54.53588
H         73.51721       92.01603       54.80648
H         71.89847       92.48558       54.17196
N         70.40654       88.13355       51.76803
C         70.41409       86.74276       51.33063
C         69.71498       86.55434       49.99061
O         69.66958       85.42358       49.52493
C         69.74894       85.87768       52.42105
C         70.42173       86.02676       53.80208
C         71.85162       85.61023       53.75817
O         72.75255       86.38467       54.03484
O         72.12028       84.35938       53.37881
H         69.48801       88.55642       51.95554
H         71.45419       86.37617       51.18725
H         69.77722       84.80750       52.11514
H         68.68523       86.17814       52.51518
H         69.90683       85.37390       54.53288
H         70.34510       87.06709       54.15871
N         69.16817       87.59863       49.29913
C         68.51243       87.44715       48.01477
H         67.46185       87.79597       48.09546
H         69.03918       88.06658       47.25881
H         68.50504       86.39554       47.65872
H         69.21201       88.55468       49.67700
Ca        74.09659       83.42741       53.02593
O         75.20441       85.67668       55.96025
H         75.58470       85.93215       56.83774
H         74.91223       86.53363       55.56125
O         76.81177       82.86882       56.32382
H         77.22946       83.70029       56.66187
H         77.57650       82.28396       56.09276
O         76.43279       85.29789       52.23554
H         75.53343       85.71283       52.22976
H         76.33153       84.47536       51.69307

Ca 1.0



