%chk=apoCaM-CA-Ng.loop2.water4.frame220.chk
%nprocshared=20
%mem=10GB
%nosave
#b3lyp/svp scf=(tight,noincore,xqc) Test 
#IOP(5/87=12) Density=Current Pop=(MK,readradii) iop(6/33=2) iop(6/42=6)

apoCaM-CA-Ng.loop2.water4.frame220 

   -2  1 
C         -4.36833       37.25242       86.34544
C         -5.71770       36.59673       86.31724
O         -5.95258       35.74569       85.47098
H         -3.71646       36.85195       85.53962
H         -4.48275       38.34716       86.19945
H         -3.88124       37.06464       87.32519
N         -6.66445       36.95090       87.23067
C         -7.99923       36.36170       87.26156
C         -8.73057       36.67551       85.96981
O         -8.89463       37.84690       85.65603
C         -8.79013       36.90515       88.46916
C        -10.15342       36.27965       88.57509
O        -10.26787       35.07295       88.72062
O        -11.25563       37.05078       88.51481
H         -6.41508       37.66376       87.93472
H         -7.89429       35.26120       87.39154
H         -8.89365       38.00947       88.38166
H         -8.23090       36.68459       89.40430
N         -9.17909       35.66930       85.16375
C         -9.82381       35.90911       83.87688
C         -8.96358       35.35354       82.75773
O         -7.96564       34.70123       83.03514
C        -11.22867       35.30559       83.87410
H         -9.02852       34.69116       85.45599
H         -9.91947       37.00161       83.69474
H        -11.83100       35.76266       84.68895
H        -11.74055       35.50682       82.90957
H        -11.18284       34.20799       84.03820
N         -9.23858       35.67196       81.45923
C         -8.32831       35.35497       80.36518
C         -9.05577       34.72793       79.18914
O        -10.00371       35.31223       78.68277
C         -7.62113       36.65226       79.94271
C         -6.55381       36.40393       78.91437
O         -5.53441       35.56655       79.18858
O         -6.59927       36.96462       77.83209
H        -10.04909       36.27842       81.25921
H         -7.52853       34.66434       80.71242
H         -7.12515       37.08503       80.83796
H         -8.36491       37.38808       79.56553
N         -8.59595       33.56026       78.65900
C         -9.14668       32.91894       77.47684
C         -8.13701       32.88604       76.34146
O         -8.36801       32.16303       75.38263
H         -7.77311       33.10973       79.08728
H        -10.07224       33.41430       77.10967
H         -9.41087       31.87766       77.75907
N         -7.02484       33.68135       76.34562
C         -6.04237       33.68638       75.26770
C         -5.18347       32.43706       75.35236
O         -4.51003       32.25358       76.35743
C         -5.14293       34.94416       75.37610
C         -4.15116       35.10209       74.24213
N         -3.29693       36.15058       74.23689
O         -4.11461       34.29583       73.32423
H         -6.89750       34.35137       77.11449
H         -6.58077       33.75722       74.29529
H         -4.58773       34.91877       76.33951
H         -5.79241       35.84602       75.37826
H         -3.31006       36.84266       74.99859
H         -2.61645       36.26962       73.47197
N         -5.14850       31.53340       74.33451
C         -4.29186       30.35592       74.36701
C         -2.82304       30.70091       74.19044
O         -2.48906       31.85920       73.98211
H         -5.76272       31.67083       73.51737
H         -4.56357       29.69024       73.51962
H         -4.46317       29.79721       75.31218
N         -1.88632       29.70600       74.20496
C         -0.47287       29.93627       73.88298
C          0.23822       30.88668       74.84070
O          1.29387       31.38507       74.47437
C          0.32622       28.61311       73.75565
C          0.43705       27.83276       75.07869
O         -0.20797       27.80624       72.73337
H         -2.21917       28.74656       74.37596
H         -0.46027       30.42395       72.88184
H          1.36420       28.86876       73.44883
H         -1.02367       27.35823       73.07638
H          0.93539       28.44913       75.85573
H         -0.56138       27.52965       75.45586
H          1.04592       26.91802       74.92064
N         -0.27410       31.19617       76.06359
C          0.27814       32.23786       76.93052
C         -0.74073       33.35690       77.02333
O         -1.82470       33.21657       76.47230
C          0.78462       31.67399       78.29671
C         -0.21726       30.68151       78.94438
C          2.16759       31.02540       78.08752
C          0.21342       30.17151       80.32348
H         -1.14210       30.73211       76.36915
H          1.14359       32.73607       76.43951
H          0.95006       32.53036       78.98678
H         -0.34231       29.79160       78.28940
H         -1.20220       31.18179       79.05585
H          2.87107       31.76911       77.65291
H          2.61998       30.71000       79.04877
H          2.10449       30.15370       77.40451
H          0.33213       31.01736       81.03155
H         -0.56054       29.47934       80.71739
H          1.16121       29.59730       80.27140
N         -0.41132       34.55883       77.57999
C         -1.23177       35.74651       77.36609
C         -0.38958       36.77320       76.60888
O         -0.36518       37.93766       76.97398
C         -1.80615       36.24351       78.70935
C         -2.83995       37.33582       78.58234
O         -3.17848       37.77095       77.49290
O         -3.42065       37.82280       79.69484
H          0.49687       34.67018       78.05709
H         -2.09351       35.49398       76.71444
H         -0.97511       36.58624       79.36289
H         -2.31091       35.38754       79.20773
N          0.38067       36.36648       75.55388
C          1.25303       37.23929       74.76525
C          2.17694       38.06264       75.65961
O          2.83608       37.48559       76.51214
C          2.05485       36.38488       73.74801
C          2.98502       37.18930       72.86106
C          2.67531       37.38875       71.50403
C          4.18149       37.73114       73.37114
C          3.53351       38.12847       70.68316
C          5.03807       38.46441       72.54606
C          4.71310       38.66608       71.20379
H          0.36739       35.36360       75.31255
H          0.60072       37.91452       74.17772
H          1.30252       35.86601       73.11335
H          2.64771       35.59655       74.26185
H          1.76560       36.98138       71.08171
H          4.46430       37.57936       74.40350
H          3.28447       38.28452       69.64169
H          5.95631       38.87364       72.94792
H          5.37771       39.23517       70.56658
N          2.29635       39.42216       75.50572
C          3.10964       40.29781       76.34293
C          2.75944       40.22050       77.81548
O          3.65593       40.21994       78.64679
C          2.75277       41.70480       75.83403
C          2.50519       41.45327       74.37106
C          1.68147       40.17348       74.42517
H          4.18770       40.08319       76.16458
H          1.77329       42.03306       76.25444
H          3.51024       42.48320       76.06748
H          2.02761       42.28620       73.81293
H          3.48967       41.22303       73.90057
H          0.61439       40.35924       74.67808
H          1.77657       39.68433       73.43258
N          1.45081       40.17795       78.19826
C          0.99147       40.23192       79.58553
C          1.51765       39.09292       80.45557
O          1.31347       39.15779       81.66091
C         -0.55477       40.18048       79.64894
C         -1.28380       41.30396       78.88988
C         -2.76174       41.03858       78.91212
O         -3.41282       40.79041       77.75925
O         -3.36754       40.99371       79.97094
H          0.75132       40.14156       77.44646
H          1.35053       41.19123       80.01961
H         -0.88483       40.21542       80.71104
H         -0.87098       39.20459       79.22434
H         -0.97351       41.33449       77.82710
H         -1.05985       42.29225       79.34360
N          2.17110       38.01200       79.94474
C          2.65669       36.94459       80.79161
H          3.39806       37.34407       81.51632
H          1.80997       36.48297       81.34295
H          3.14761       36.16335       80.17363
H          2.32007       37.91933       78.93368
Ca        -5.55674       40.08480       77.79517
O         -6.20198       42.25555       75.79600
H         -6.74698       41.61539       75.27282
H         -6.73814       42.42932       76.61038
O         -6.64600       39.66527       80.57681
H         -7.06219       40.56315       80.58031
H         -5.76191       39.79504       81.00278
O         -5.51900       38.69369       74.94844
H         -4.59179       38.97577       74.74549
H         -5.81910       38.22034       74.13220
O         -8.54615       39.60775       77.33178
H         -8.65205       38.63667       77.17107
H         -8.80599       39.73257       78.27904

Ca 1.0



