%chk=apoCaM-CA-Ng.loop1.water1.frame867.chk
%nprocshared=20
%mem=10GB
%nosave
#b3lyp/svp scf=(tight,noincore,xqc) Test 
#IOP(5/87=12) Density=Current Pop=(MK,readradii) iop(6/33=2) iop(6/42=6)

apoCaM-CA-Ng.loop1.water1.frame867 

   0  1 
C         48.00177       13.26493       16.98799
C         46.72109       13.25275       16.20492
O         46.70323       12.71209       15.10847
H         48.79361       13.76691       16.39350
H         47.88717       13.81299       17.94755
H         48.31307       12.22368       17.21034
N         45.59710       13.82895       16.71434
C         44.32130       13.86756       15.99675
C         44.42804       14.62271       14.67183
O         45.44061       15.26292       14.42143
C         43.18875       14.37187       16.92376
C         43.46491       15.66273       17.65753
O         44.57927       16.38331       17.42433
O         42.65681       16.06558       18.47916
H         45.65751       14.22548       17.66346
H         44.06317       12.81988       15.72696
H         43.05399       13.60067       17.71184
H         42.23459       14.44980       16.35812
N         43.47098       14.45466       13.70738
C         43.70376       14.86478       12.32162
C         43.56363       16.35597       12.07261
O         44.06591       16.80753       11.05154
C         42.85729       14.03034       11.33042
C         41.35630       14.38379       11.32201
C         40.53962       13.45504       10.40318
C         40.35939       12.04713       11.00101
N         39.58258       11.18852       10.10727
H         42.67271       13.83698       13.91884
H         44.75755       14.58320       12.09094
H         43.01551       12.96251       11.58521
H         43.24355       14.18513       10.29769
H         41.26078       15.42163       10.93425
H         40.92263       14.35820       12.34371
H         41.01783       13.40166        9.39997
H         39.52609       13.89404       10.27600
H         39.82465       12.13942       11.97318
H         41.33955       11.56372       11.19013
H         38.65347       11.62096        9.89908
H         40.10912       11.03358        9.21697
H         39.42780       10.26433       10.57204
N         42.84641       17.17819       12.89812
C         42.69915       18.60596       12.60277
C         44.02881       19.33895       12.81020
O         44.95481       18.71346       13.30402
C         41.48595       19.21161       13.35382
C         41.44914       19.29619       14.85829
O         40.47332       19.82297       15.36722
O         42.36775       18.78248       15.68881
H         42.35118       16.77098       13.70552
H         42.42357       18.68822       11.52854
H         40.58750       18.63031       13.05227
H         41.31691       20.23364       12.98935
N         44.28293       20.62876       12.44130
C         43.40896       21.55126       11.74058
C         43.10332       21.09384       10.33843
O         44.02272       20.70724        9.63201
H         45.22659       20.99259       12.65107
H         43.96708       22.50567       11.62465
H         42.50925       21.81425       12.32381
N         41.84347       21.21775        9.83507
C         41.51076       20.96864        8.43347
C         41.21826       22.29141        7.74265
O         41.25419       23.32695        8.39623
C         40.36492       19.94384        8.32804
C         39.11983       20.36577        9.05967
O         38.66183       19.62192       10.08501
O         38.51674       21.37429        8.72990
H         41.10582       21.59969       10.44725
H         42.38559       20.54222        7.89525
H         40.72424       18.98625        8.76392
H         40.11542       19.75418        7.26225
N         40.99130       22.34975        6.39710
C         40.86674       23.62389        5.70401
C         42.16666       24.41715        5.73025
O         42.14307       25.58245        5.35804
H         40.93962       21.48120        5.84450
H         40.05297       24.20799        6.18586
H         40.58742       23.46294        4.63990
N         43.34792       23.84309        6.11133
C         44.62029       24.56098        6.14448
C         44.64587       25.64403        7.21768
O         43.72876       25.74275        8.01893
C         45.81171       23.57932        6.34537
C         45.76447       22.82353        7.68081
O         45.83676       22.64195        5.30008
H         43.35620       22.83778        6.32133
H         44.75735       25.05104        5.15451
H         46.76975       24.14783        6.34533
H         46.26620       23.08794        4.52351
H         44.86742       22.17992        7.74810
H         46.65583       22.16778        7.77078
H         45.76117       23.52667        8.53836
N         45.70060       26.50829        7.25289
C         45.84201       27.61410        8.19422
C         45.71451       28.95589        7.47802
O         45.79758       29.98227        8.14448
C         47.15983       27.52780        9.03174
C         48.50756       27.62721        8.25360
C         47.14140       26.32321        9.98426
C         49.02550       26.36604        7.54169
H         46.40354       26.41862        6.51609
H         45.00317       27.59846        8.92498
H         47.13915       28.42809        9.68789
H         49.29110       27.86877        9.00528
H         48.46916       28.47762        7.53993
H         47.12195       25.36822        9.42183
H         48.03782       26.34070       10.64105
H         46.24179       26.36370       10.63489
H         48.40676       26.02929        6.69973
H         50.02741       26.58354        7.11605
H         49.14585       25.52759        8.25844
N         45.43067       29.03696        6.14687
C         45.17194       30.29719        5.46448
C         46.43968       31.11444        5.31990
O         47.50380       30.55679        5.08892
C         44.51877       30.06467        4.08363
C         43.17013       29.33874        4.23463
O         44.29477       31.30762        3.46777
H         45.31823       28.17225        5.60031
H         44.42669       30.87680        6.05683
H         45.21287       29.45485        3.45931
H         44.13282       31.12816        2.50532
H         42.48002       29.93843        4.86719
H         42.70311       29.19470        3.23913
H         43.28852       28.33855        4.69896
N         46.36537       32.46957        5.41161
C         47.50349       33.36910        5.29618
C         47.67648       34.07542        6.62253
O         48.74890       33.96609        7.20125
C         47.30651       34.33032        4.09767
C         48.48291       35.29804        3.92567
O         46.11633       35.06503        4.23561
H         45.43889       32.88972        5.57985
H         48.43846       32.79837        5.09275
H         47.26013       33.69015        3.18263
H         45.66071       35.05992        3.35301
H         49.43352       34.73803        3.80007
H         48.32316       35.92792        3.02468
H         48.57732       35.96762        4.80478
N         46.64696       34.76541        7.19662
C         46.74620       35.37446        8.51571
C         45.82214       34.65766        9.48525
O         44.99931       33.85405        9.06486
C         46.44163       36.88813        8.42168
C         47.45852       37.58128        7.49419
C         47.30086       39.10448        7.37316
C         46.00796       39.53969        6.66584
N         45.99973       40.98905        6.45605
H         45.74066       34.82939        6.70955
H         47.77275       35.24489        8.92134
H         46.50712       37.34400        9.43306
H         45.40887       37.03412        8.03587
H         47.40193       37.14422        6.47547
H         48.47462       37.38603        7.90005
H         48.15721       39.46772        6.76352
H         47.36677       39.57575        8.37760
H         45.12266       39.24964        7.27139
H         45.93958       39.03573        5.67584
H         46.05809       41.48929        7.37254
H         46.80855       41.26860        5.85333
H         45.11467       41.26474        5.97257
N         45.95099       34.86870       10.82506
C         45.11627       34.21013       11.82489
C         45.19432       32.68126       11.74116
O         44.14720       32.08882       11.52117
C         45.43736       34.75203       13.23960
C         44.52030       34.17052       14.32304
C         44.79716       34.82052       15.64884
O         46.01901       34.72754       16.20847
O         43.91606       35.43870       16.22459
H         46.67335       35.53355       11.14321
H         44.06172       34.50434       11.61801
H         45.29507       35.85525       13.21478
H         46.48983       34.55965       13.52519
H         44.68767       33.07615       14.41916
H         43.45916       34.34438       14.04027
N         46.32676       31.93298       11.90578
C         47.66614       32.43075       12.13319
H         48.33659       32.03605       11.34156
H         47.73876       33.52859       12.10438
H         48.02887       32.06418       13.11725
H         46.23254       30.90557       11.85964
Ca        44.26825       17.64314       15.64165
O         47.67290       17.33233       14.48514
H         47.44419       17.10025       13.54994
H         48.53426       16.87302       14.65082

Ca 1.0



