%chk=apoCaM-CA-Ng.loop2.water4.frame1320.chk
%nprocshared=20
%mem=10GB
%nosave
#b3lyp/svp scf=(tight,noincore,xqc) Test 
#IOP(5/87=12) Density=Current Pop=(MK,readradii) iop(6/33=2) iop(6/42=6)

apoCaM-CA-Ng.loop2.water4.frame1320 

   -2  1 
C         54.06481       37.84865       91.64036
C         53.63273       39.27888       91.40443
O         54.42261       39.99410       90.80563
H         54.99557       37.84109       92.24480
H         53.34003       37.18890       92.14050
H         54.28363       37.38068       90.65682
N         52.43265       39.81739       91.78634
C         51.36715       39.14403       92.52939
C         51.03218       39.84968       93.84573
O         50.28030       39.26349       94.61283
C         50.12367       38.97877       91.62628
C         49.65728       40.30491       91.10207
O         49.71774       40.55219       89.90818
O         49.28459       41.26330       91.96472
H         52.25959       40.79489       91.50362
H         51.67396       38.13134       92.82974
H         49.30095       38.47646       92.17885
H         50.40595       38.32944       90.76787
N         51.55232       41.06849       94.20167
C         51.36356       41.64808       95.53113
C         50.63059       42.98226       95.55555
O         50.40306       43.46296       96.65834
C         52.74836       41.84271       96.16066
H         52.15584       41.58449       93.54692
H         50.77991       40.95651       96.17582
H         53.29194       40.87599       96.19767
H         53.34375       42.55983       95.55139
H         52.66705       42.24287       97.19342
N         50.27206       43.66869       94.42975
C         49.69814       45.01452       94.49508
C         48.35062       45.16839       93.81139
O         47.82750       44.22721       93.23461
C         50.73997       46.04414       94.00245
C         51.18797       46.08516       92.55545
O         50.76400       45.27230       91.55996
O         52.01088       46.93872       92.26633
H         50.50555       43.27121       93.51664
H         49.50408       45.28875       95.55450
H         51.64927       45.90545       94.62624
H         50.36003       47.06143       94.22931
N         47.73235       46.38262       93.86145
C         46.50179       46.72016       93.17684
C         46.83041       47.78122       92.15892
O         47.37409       48.81152       92.53357
H         48.18079       47.14709       94.38685
H         45.76853       47.11255       93.91434
H         46.04731       45.83590       92.68195
N         46.54578       47.58876       90.84274
C         46.92227       48.52854       89.79477
C         45.68774       49.18768       89.22594
O         44.58496       48.87601       89.65686
C         47.70725       47.78485       88.69426
C         48.96742       47.14527       89.21449
N         49.96406       47.90070       89.73038
O         49.09874       45.93236       89.14746
H         46.03044       46.74254       90.56448
H         47.55293       49.34709       90.20581
H         47.99776       48.48245       87.88144
H         47.05066       47.00106       88.25478
H         49.87874       48.92523       89.78788
H         50.83399       47.46105       90.05877
N         45.80835       50.15514       88.27422
C         44.67138       50.89347       87.75278
C         44.81815       52.36941       88.05932
O         45.84253       52.76704       88.59856
H         46.74674       50.40863       87.92787
H         43.72881       50.53402       88.21104
H         44.60474       50.72905       86.65963
N         43.83324       53.27264       87.79088
C         42.52439       52.93769       87.22911
C         42.57075       52.61018       85.73604
O         41.51121       52.35143       85.18078
C         41.53041       54.11081       87.44475
C         41.31212       54.43737       88.92739
O         41.98679       55.25858       86.77195
H         44.01028       54.24746       88.08011
H         42.10111       52.07057       87.78191
H         40.53742       53.78899       87.04484
H         41.21712       55.63450       86.27026
H         40.93921       53.54185       89.46865
H         42.24643       54.78518       89.41377
H         40.55486       55.24422       89.02176
N         43.72972       52.61189       85.01181
C         43.76889       52.44393       83.56078
C         44.32401       51.05884       83.23632
O         45.34961       50.71440       83.80681
C         44.63758       53.56740       82.92456
C         44.14071       54.96653       83.38108
C         44.62055       53.44211       81.38686
C         45.01164       56.11987       82.88140
H         44.63073       52.76927       85.48362
H         42.74744       52.56372       83.16584
H         45.68545       53.44148       83.27886
H         44.16590       55.01931       84.49085
H         43.09066       55.12812       83.05387
H         43.59041       53.58940       80.99688
H         45.29243       54.18369       80.91326
H         44.98284       52.44363       81.06564
H         46.06342       55.97617       83.20898
H         44.97495       56.20800       81.77762
H         44.63613       57.07431       83.30661
N         43.73618       50.17360       82.36941
C         42.60053       50.44275       81.48382
C         42.96438       50.14581       80.02828
O         44.05349       49.66688       79.75567
C         41.35761       49.67103       81.97219
C         41.56202       48.18430       82.05063
O         41.80639       47.53763       81.04518
O         41.45674       47.55595       83.23755
H         44.15654       49.23241       82.30524
H         42.32808       51.50902       81.48616
H         40.48719       49.88493       81.31645
H         41.10430       50.04679       82.98855
N         42.08852       50.44638       79.02914
C         42.37130       50.25908       77.60384
C         43.55538       51.11467       77.15841
O         43.59043       52.28206       77.52729
C         41.09762       50.61632       76.78631
C         41.28292       50.54654       75.28355
C         40.78481       49.45809       74.54615
C         41.95030       51.58209       74.60108
C         40.97373       49.39875       73.16019
C         42.12861       51.52293       73.21723
C         41.64585       50.42925       72.49725
H         41.17643       50.84645       79.29833
H         42.58177       49.18523       77.41779
H         40.71929       51.63058       77.04082
H         40.31322       49.89109       77.09724
H         40.26629       48.64834       75.04318
H         42.32918       52.44164       75.13759
H         40.60051       48.55247       72.59855
H         42.64545       52.32441       72.70476
H         41.79134       50.38242       71.42568
N         44.50171       50.66216       76.26878
C         44.49601       49.35714       75.61961
C         45.23427       48.29631       76.41596
O         45.04082       47.12642       76.11520
C         45.21863       49.63692       74.29739
C         46.28335       50.62936       74.72871
C         45.49325       51.53869       75.67037
H         43.47639       48.99608       75.37905
H         45.58418       48.73805       73.75526
H         44.52166       50.18307       73.62442
H         47.04310       50.07050       75.31682
H         46.80455       51.16265       73.90566
H         46.16255       52.02028       76.41494
H         44.95244       52.31709       75.08729
N         46.13382       48.61213       77.39335
C         46.87856       47.59747       78.13295
C         47.73534       46.77637       77.17215
O         48.59028       47.35782       76.51836
C         47.80466       48.23314       79.19777
C         47.03658       49.03699       80.25739
C         47.95951       49.57388       81.31029
O         48.85084       50.35227       81.01015
O         47.79541       49.21295       82.59697
H         46.30820       49.60450       77.60307
H         46.14827       46.95724       78.66795
H         48.55072       48.89515       78.70324
H         48.35204       47.41298       79.71428
H         46.28040       48.37845       80.73687
H         46.52249       49.90116       79.79306
N         47.59156       45.42951       77.00773
C         46.61473       44.62593       77.71077
H         45.58763       44.96778       77.46695
H         46.70612       43.56380       77.39870
H         46.78467       44.68578       78.80610
H         48.21341       44.94570       76.34089
Ca        49.53496       43.39778       91.33824
O         46.41207       44.33942       89.88231
H         45.83318       44.31381       90.68543
H         45.78867       44.51689       89.13402
O         46.56348       41.58902       90.76093
H         45.60678       41.70308       90.53372
H         46.64316       40.64112       91.03335
O         51.32188       43.52227       88.71446
H         51.93974       42.92813       89.21018
H         51.58337       44.43688       88.98934
O         48.18851       42.86236       87.86278
H         47.65955       43.28254       87.13871
H         47.83011       41.94177       87.92985

Ca 1.0



