%chk=apoCaM-CA-Ng.loop1.water3.frame959.chk
%nprocshared=20
%mem=10GB
%nosave
#b3lyp/svp scf=(tight,noincore,xqc) Test 
#IOP(5/87=12) Density=Current Pop=(MK,readradii) iop(6/33=2) iop(6/42=6)

apoCaM-CA-Ng.loop1.water3.frame959 

   0  1 
C         53.60203       70.99336       38.49051
C         52.96351       71.29746       39.81609
O         51.74418       71.34607       39.88566
H         54.71008       70.97287       38.56734
H         53.25817       70.00135       38.13006
H         53.31611       71.76954       37.75032
N         53.73551       71.51476       40.91680
C         53.20457       71.81490       42.24115
C         53.64308       73.20012       42.67958
O         54.82932       73.45701       42.78298
C         53.57504       70.70736       43.26454
C         54.79368       69.84508       42.96833
O         56.06752       70.29246       42.90772
O         54.61135       68.65258       42.77619
H         54.76111       71.47422       40.81220
H         52.09247       71.84656       42.22271
H         52.71969       69.99296       43.24342
H         53.59233       71.11622       44.29782
N         52.71087       74.16623       42.93388
C         53.06615       75.52832       43.31167
C         53.76225       75.55691       44.66348
O         53.15382       75.18382       45.65627
C         51.80600       76.42500       43.34895
C         52.14759       77.89794       43.63695
C         50.88813       78.77378       43.64198
C         51.24643       80.24083       43.91390
N         50.05515       81.08709       43.92493
H         51.71200       73.93596       42.81556
H         53.73202       75.93731       42.51892
H         51.09703       76.04700       44.11893
H         51.30414       76.36921       42.35764
H         52.84766       78.26553       42.85515
H         52.64506       77.98375       44.62772
H         50.19223       78.41347       44.43092
H         50.38179       78.69941       42.65482
H         51.93265       80.60087       43.11821
H         51.76118       80.32175       44.89773
H         49.57678       81.04513       42.99587
H         49.39950       80.77664       44.67793
H         50.34304       82.07508       44.11207
N         55.02758       76.05431       44.76449
C         55.73597       76.26075       46.03433
C         57.06265       77.00146       45.80250
O         57.54277       77.00343       44.67762
C         55.96034       74.93028       46.79853
C         56.73874       73.91298       46.01245
O         56.23456       72.83216       45.75333
O         58.00340       74.16648       45.62510
H         55.46745       76.36440       43.88625
H         55.08545       76.90682       46.65059
H         54.98054       74.48991       47.07334
H         56.49300       75.11094       47.74968
N         57.75399       77.66606       46.77613
C         57.35617       77.88959       48.15809
C         56.17521       78.82393       48.29648
O         55.52798       79.15028       47.31539
H         58.65787       78.08394       46.50199
H         58.20610       78.40521       48.65754
H         57.18872       76.94362       48.70511
N         55.86990       79.33261       49.52234
C         54.78793       80.28454       49.75965
C         54.99514       81.56118       48.95514
O         56.03150       82.19745       49.09280
C         54.71679       80.62665       51.26442
C         53.58192       81.56173       51.58289
O         52.42922       81.23325       51.35147
O         53.83376       82.76537       52.13222
H         56.45114       79.03598       50.32239
H         53.82516       79.80536       49.47370
H         55.67613       81.09059       51.58528
H         54.57301       79.69265       51.84937
N         54.01307       82.01580       48.12440
C         54.10511       83.26667       47.38656
C         55.08608       83.24743       46.23043
O         55.20437       84.27313       45.57557
H         53.12747       81.49068       48.06459
H         54.35552       84.08898       48.09147
H         53.10864       83.49197       46.94698
N         55.78466       82.12761       45.88317
C         56.66670       82.04863       44.72430
C         58.07054       81.66183       45.15150
O         58.26423       81.22966       46.28017
C         56.13246       80.96485       43.74942
C         54.66634       81.18358       43.37897
O         56.90200       80.94873       42.57528
H         55.66034       81.27459       46.42828
H         56.70562       83.03353       44.20949
H         56.20771       79.97684       44.26766
H         56.78788       80.05023       42.16762
H         54.52864       82.15956       42.87051
H         54.33457       80.36845       42.70119
H         54.03122       81.14852       44.28828
N         59.10363       81.77805       44.27045
C         60.44794       81.28004       44.54059
C         61.43602       82.39120       44.84077
O         62.59151       82.06440       45.07896
C         60.92725       80.31949       43.41007
C         61.03793       81.02499       42.03168
C         60.00778       79.08479       43.35941
C         61.65731       80.14139       40.94647
H         58.92380       82.23853       43.36724
H         60.44906       80.68017       45.47793
H         61.94118       79.95778       43.69262
H         61.68939       81.91895       42.13731
H         60.04162       81.35903       41.67492
H         60.38636       78.32352       42.64964
H         59.96904       78.60051       44.35797
H         58.97769       79.36691       43.06501
H         62.66807       79.80144       41.25620
H         61.02147       79.25971       40.72860
H         61.75180       80.72399       40.00594
N         61.05146       83.69646       44.98078
C         61.95053       84.70935       45.52756
C         62.08490       85.90369       44.60162
O         61.35887       86.01168       43.62236
C         61.41266       85.13997       46.92510
C         61.20923       83.94055       47.86641
O         62.25345       86.08043       47.54408
H         60.07031       83.96767       44.81627
H         62.97043       84.28793       45.66004
H         60.41738       85.61747       46.78702
H         63.11874       85.63030       47.73329
H         60.46995       83.22614       47.44669
H         62.16968       83.40698       48.03008
H         60.82126       84.29228       48.84528
N         63.02924       86.84657       44.87427
C         63.21529       88.07512       44.12285
C         64.59395       88.09012       43.48176
O         64.67670       88.27340       42.27548
C         62.99243       89.28848       45.07523
C         63.13380       90.63580       44.36248
O         63.89005       89.26577       46.15789
H         63.65636       86.68959       45.67507
H         62.45674       88.16014       43.31188
H         61.94292       89.24357       45.45515
H         63.43036       88.82621       46.92026
H         64.16399       90.76893       43.96930
H         62.40909       90.71077       43.52531
H         62.92964       91.45998       45.08029
N         65.71966       87.96319       44.24171
C         67.06572       88.19658       43.73411
C         68.02016       87.06381       44.06934
O         68.06593       86.62938       45.21232
C         67.58481       89.53238       44.31524
C         67.74024       89.55280       45.84773
C         68.07741       90.95412       46.35346
C         68.21546       90.94895       47.88130
N         68.44607       92.29903       48.38882
H         65.61367       87.79272       45.24953
H         67.05373       88.34928       42.63220
H         66.86073       90.32194       44.01487
H         68.56667       89.77885       43.85348
H         68.54451       88.85164       46.15517
H         66.79228       89.25133       46.33541
H         67.25377       91.64332       46.06390
H         69.02443       91.30971       45.89203
H         69.06270       90.28912       48.17467
H         67.28413       90.54635       48.33983
H         69.31993       92.69621       47.97448
H         67.63091       92.91042       48.15151
H         68.54604       92.25929       49.42868
N         68.91959       86.63735       43.13815
C         70.03298       85.75800       43.47346
C         69.57397       84.36630       43.90268
O         69.92002       83.98261       45.01106
C         71.08785       85.75764       42.34231
C         72.38790       85.05300       42.75942
C         73.43700       85.18869       41.69306
O         74.59084       85.83052       41.96095
O         73.25173       84.71984       40.58143
H         68.88658       87.05315       42.19432
H         70.56193       86.22547       44.33701
H         71.34245       86.81941       42.12372
H         70.69747       85.31808       41.40796
H         72.20084       83.97613       42.95543
H         72.77131       85.52109       43.69307
N         68.79679       83.53502       43.14813
C         68.25072       83.85388       41.84748
H         67.60153       84.75051       41.91068
H         69.05099       84.00009       41.10226
H         67.62692       83.00635       41.49132
H         68.54851       82.61456       43.54438
Ca        57.15163       72.26070       43.10234
O         57.75657       75.30574       42.03497
H         57.73819       74.95077       42.95851
H         58.71522       75.47725       41.85683
O         58.80288       70.39163       44.92362
H         58.48333       69.55243       44.50638
H         59.75767       70.22224       45.12320
O         60.27494       73.04619       43.19821
H         60.70660       72.35728       43.76332
H         61.02833       73.57237       42.82965

Ca 1.0



