%chk=apoCaM-CA-Ng.loop2.water4.frame764.chk
%nprocshared=20
%mem=10GB
%nosave
#b3lyp/svp scf=(tight,noincore,xqc) Test 
#IOP(5/87=12) Density=Current Pop=(MK,readradii) iop(6/33=2) iop(6/42=6)

apoCaM-CA-Ng.loop2.water4.frame764 

   -2  1 
C         88.38909       22.38977       -8.46701
C         89.67806       22.73738       -9.15410
O         90.15997       21.93236       -9.93796
H         87.59333       22.24365       -9.22879
H         88.51409       21.45196       -7.88784
H         88.06514       23.19613       -7.77580
N         90.27020       23.94694       -8.94293
C         91.47126       24.38413       -9.64208
C         91.03953       25.40048      -10.67114
O         90.45871       26.41378      -10.30258
C         92.49014       24.95931       -8.64160
C         93.74707       25.42139       -9.32570
O         94.43457       24.63046       -9.95186
O         94.12292       26.71221       -9.24558
H         89.80142       24.62372       -8.32009
H         91.94778       23.52640      -10.16622
H         92.75751       24.17958       -7.89607
H         92.03350       25.81521       -8.09687
N         91.22045       25.15113      -12.00138
C         90.62482       25.99607      -13.03112
C         89.10718       25.93799      -12.88892
O         88.62462       24.96408      -12.32765
C         91.04737       25.51153      -14.42300
H         91.73750       24.30409      -12.28487
H         90.99448       27.03272      -12.87493
H         92.15405       25.55526      -14.51195
H         90.71955       24.46195      -14.58495
H         90.60930       26.14398      -15.22107
N         88.26774       26.94705      -13.25816
C         88.65454       28.16318      -13.95709
C         88.72491       29.34612      -13.00857
O         87.78753       29.60385      -12.26694
C         87.73061       28.42208      -15.17114
C         86.25904       28.64428      -14.89866
O         85.74086       28.60035      -13.65726
O         85.51501       28.87120      -15.83848
H         87.27658       26.84122      -12.99970
H         89.66291       28.04485      -14.39765
H         87.81787       27.55559      -15.86234
H         88.11273       29.32137      -15.70163
N         89.83558       30.13610      -13.01382
C         90.00300       31.29930      -12.16504
C         90.22199       30.88599      -10.72548
O         91.11437       30.07987      -10.50314
H         90.59148       29.93321      -13.68541
H         89.14537       31.98113      -12.32469
H         90.92380       31.83329      -12.48442
N         89.49244       31.35666       -9.67123
C         88.43991       32.36410       -9.75328
C         87.72913       32.45774       -8.41240
O         88.36461       32.77286       -7.41504
C         89.01637       33.75796      -10.12820
C         87.93041       34.80279      -10.29407
N         87.72552       35.40721      -11.48808
O         87.23307       35.11340       -9.33953
H         89.70812       30.95429       -8.74454
H         87.70693       32.04747      -10.52667
H         89.58932       33.69810      -11.07102
H         89.73256       34.09863       -9.34942
H         88.29608       35.16706      -12.31137
H         86.98538       36.11767      -11.59195
N         86.39036       32.22891       -8.33253
C         85.66753       32.39988       -7.07919
C         84.15958       32.21145       -7.15159
O         83.51958       32.57634       -6.17270
H         85.90687       31.99261       -9.20280
H         85.83834       33.44950       -6.75189
H         86.07813       31.72329       -6.29873
N         83.50245       31.67256       -8.22375
C         82.04776       31.60984       -8.32079
C         81.56368       30.17470       -8.34554
O         82.38374       29.26142       -8.36135
C         81.58570       32.37086       -9.58935
C         82.00334       33.84281       -9.54440
O         82.14020       31.78361      -10.74195
H         84.02070       31.28898       -9.02329
H         81.57587       32.08584       -7.43279
H         80.47248       32.36121       -9.64938
H         81.46552       31.15584      -11.11079
H         83.10965       33.94128       -9.50399
H         81.64255       34.36277      -10.45699
H         81.56395       34.34031       -8.65429
N         80.22718       29.90245       -8.31864
C         79.68440       28.55156       -8.32751
C         78.78718       28.37790       -9.53753
O         77.74182       29.01225       -9.61503
C         78.91654       28.24954       -7.00807
C         78.28526       26.82777       -7.04667
C         79.86977       28.39532       -5.80455
C         77.37713       26.52784       -5.85364
H         79.55897       30.68903       -8.27222
H         80.50924       27.81580       -8.39153
H         78.09808       28.99685       -6.90580
H         79.08216       26.05480       -7.11422
H         77.64020       26.73053       -7.94527
H         80.31136       29.41292       -5.77146
H         79.33610       28.25239       -4.84470
H         80.69541       27.65336       -5.87120
H         76.91959       25.52431       -5.98490
H         77.93953       26.52045       -4.89965
H         76.56197       27.28103       -5.79806
N         79.13669       27.49610      -10.50979
C         78.30894       27.13410      -11.64808
C         78.00168       25.63113      -11.63754
O         77.31528       25.18725      -12.54509
C         78.95296       27.68127      -12.94699
C         80.40666       27.33383      -13.08302
O         81.25172       28.19204      -12.88115
O         80.79965       26.07876      -13.34146
H         80.05035       27.03021      -10.44044
H         77.31444       27.63090      -11.58557
H         78.89197       28.79015      -12.86450
H         78.38075       27.39033      -13.85360
N         78.36363       24.81525      -10.58614
C         77.86266       23.44981      -10.41891
C         79.00623       22.45647      -10.14580
O         78.99626       21.81659       -9.10416
C         76.85784       23.50673       -9.23800
C         76.00179       22.28759       -8.96592
C         76.01481       21.12277       -9.76026
C         75.13051       22.34633       -7.86364
C         75.16920       20.05124       -9.45253
C         74.29187       21.27236       -7.55889
C         74.30908       20.12595       -8.35421
H         78.90210       25.19783       -9.79713
H         77.31110       23.13166      -11.32806
H         76.14802       24.34085       -9.43276
H         77.42579       23.76216       -8.31413
H         76.66082       21.03128      -10.62119
H         75.10085       23.23088       -7.23797
H         75.17748       19.16220      -10.06942
H         73.62594       21.33233       -6.70759
H         73.65422       19.29684       -8.12005
N         80.03594       22.26944      -11.02826
C         81.18394       21.38981      -10.81160
C         81.79784       21.47893       -9.42523
O         82.12572       20.44403       -8.86126
C         82.19431       21.88005      -11.85382
C         81.28856       22.25231      -13.00408
C         80.14591       22.96633      -12.28810
H         80.88411       20.34136      -11.03851
H         82.67338       22.81746      -11.49664
H         82.99623       21.14961      -12.09605
H         81.76078       22.83825      -13.82031
H         80.89431       21.30095      -13.42845
H         80.37985       24.01872      -12.06260
H         79.22757       22.90186      -12.90898
N         81.95117       22.68523       -8.80491
C         82.52888       22.83779       -7.47003
C         81.76144       21.98261       -6.47927
O         82.36327       21.12249       -5.85076
C         82.52650       24.31019       -6.97038
C         83.45480       25.28522       -7.72834
C         82.98171       25.55879       -9.11526
O         83.74473       25.30288      -10.19139
O         81.85684       25.99103       -9.28195
H         81.59789       23.51028       -9.30112
H         83.58690       22.49196       -7.49013
H         82.89495       24.30117       -5.92110
H         81.48861       24.71292       -6.95164
H         84.49431       24.89635       -7.73928
H         83.44844       26.25743       -7.18847
N         80.42107       22.14464       -6.30791
C         79.66125       21.31598       -5.39786
H         78.58717       21.59506       -5.43743
H         79.75963       20.24720       -5.68717
H         80.03179       21.45342       -4.36012
H         79.92001       22.86242       -6.85227
Ca        82.48251       25.34895      -12.04725
O         84.08925       24.24252      -14.64385
H         84.51343       23.57939      -14.04335
H         84.83110       24.83486      -14.92531
O         82.68786       27.15845      -15.42271
H         83.45176       27.13553      -16.05100
H         82.26258       28.03913      -15.57830
O         85.90434       24.95125      -11.76789
H         86.30663       24.90220      -10.86380
H         86.05728       24.05426      -12.15615
O         84.49024       28.18686      -10.92936
H         83.60900       28.63809      -10.91678
H         85.13563       28.89245      -10.67233

Ca 1.0



