%chk=apoCaM-CA-Ng.loop2.water6.frame58.chk
%nprocshared=20
%mem=10GB
%nosave
#b3lyp/svp scf=(tight,noincore,xqc) Test 
#IOP(5/87=12) Density=Current Pop=(MK,readradii) iop(6/33=2) iop(6/42=6)

apoCaM-CA-Ng.loop2.water6.frame58 

   -2  1 
C         55.19502       77.33841       87.70040
C         56.28020       78.16534       87.08206
O         57.13858       77.61492       86.40660
H         54.20772       77.67833       87.32482
H         55.32739       76.26409       87.45019
H         55.22635       77.45374       88.80427
N         56.30907       79.51061       87.29426
C         57.34123       80.38626       86.75655
C         58.20441       80.96714       87.87264
O         59.15293       81.66638       87.54925
C         56.66693       81.48553       85.90639
C         57.65284       82.37425       85.19730
O         58.43817       81.90235       84.39030
O         57.66478       83.69881       85.44104
H         55.57089       79.93233       87.88008
H         58.02445       79.80744       86.09598
H         56.01204       82.10352       86.55931
H         56.02924       81.00630       85.13194
N         57.97519       80.69795       89.19967
C         58.82450       81.18019       90.28689
C         60.22840       80.59058       90.22289
O         61.11328       81.11607       90.88338
C         58.84471       82.71909       90.32232
H         57.17549       80.11343       89.47694
H         58.38959       80.85558       91.25767
H         57.80712       83.10619       90.40185
H         59.41204       83.07283       91.20940
H         59.32239       83.15826       89.42415
N         60.50366       79.48630       89.46251
C         61.83716       78.92458       89.27236
C         62.69840       79.96230       88.58436
O         63.79872       80.26026       89.02880
C         62.43558       78.38772       90.59842
C         61.54573       77.32839       91.18383
O         60.97487       77.51200       92.24596
O         61.36806       76.17951       90.50919
H         59.74271       79.02497       88.94415
H         61.74728       78.06882       88.56397
H         62.55921       79.21570       91.32509
H         63.43941       77.94554       90.41818
N         62.19863       80.59683       87.48790
C         62.90569       81.63171       86.76806
C         64.02509       81.02564       85.98095
O         65.17190       81.41364       86.15208
H         61.25155       80.35726       87.16030
H         63.24645       82.42700       87.46610
H         62.21219       82.09726       86.03319
N         63.73252       80.06671       85.05885
C         64.74875       79.43552       84.22673
C         64.19550       78.79870       82.93642
O         64.99877       78.27215       82.17849
C         65.52772       78.41950       85.09525
C         66.79396       77.93328       84.44016
N         67.79359       78.80093       84.15326
O         66.92835       76.74601       84.18609
H         62.74804       79.79069       84.99125
H         65.43684       80.23738       83.87921
H         64.85466       77.56749       85.33885
H         65.83288       78.88994       86.05416
H         67.70423       79.80273       84.37924
H         68.66619       78.47102       83.71596
N         62.87566       78.85326       82.56874
C         62.37715       78.34668       81.30315
C         62.45925       76.84610       81.16153
O         62.91803       76.15000       82.05688
H         62.17115       79.32880       83.13882
H         62.93350       78.83290       80.47278
H         61.30418       78.62394       81.20272
N         62.01119       76.28906       80.00331
C         62.06794       74.86051       79.70246
C         61.12311       74.00737       80.56007
O         61.14543       72.79699       80.38318
C         61.80862       74.61261       78.18218
C         60.39640       74.98896       77.69582
O         62.78971       75.25900       77.40556
H         61.66817       76.93973       79.28202
H         63.10796       74.51391       79.89363
H         61.92237       73.52444       77.98582
H         62.56830       76.22465       77.35166
H         59.63861       74.37967       78.21948
H         60.17220       76.06443       77.85184
H         60.30532       74.77456       76.60995
N         60.26270       74.54110       81.48235
C         59.29987       73.74224       82.24715
C         59.56786       73.83682       83.73931
O         59.75037       74.93691       84.24352
C         57.83125       74.15347       81.91251
C         57.47376       75.60318       82.34858
C         57.57011       73.93339       80.41389
C         56.02459       75.99414       82.05844
H         60.25317       75.55732       81.63393
H         59.37422       72.66785       81.96826
H         57.16488       73.45648       82.46990
H         58.13697       76.34006       81.84988
H         57.60266       75.69682       83.44565
H         58.14942       74.66554       79.82037
H         57.85695       72.90231       80.11510
H         56.49661       74.05200       80.16863
H         55.82911       76.02708       80.96756
H         55.32640       75.27953       82.54304
H         55.83217       77.01097       82.46077
N         59.57728       72.71097       84.51691
C         59.76426       72.75557       85.96540
C         59.85828       71.34567       86.53775
O         60.85625       71.01915       87.16364
C         58.60779       73.52168       86.67125
C         59.07820       74.01476       88.00716
O         60.00897       74.80591       88.03402
O         58.52588       73.63395       89.17538
H         59.45133       71.79624       84.05722
H         60.72617       73.28936       86.14556
H         57.69423       72.89348       86.74637
H         58.32249       74.43661       86.11500
N         58.85274       70.44707       86.31219
C         58.90321       69.04559       86.71719
C         57.49564       68.53202       87.04127
O         56.63675       68.65755       86.17911
C         59.43494       68.20081       85.53531
C         59.40344       66.72309       85.86910
C         60.27404       66.17828       86.82859
C         58.45836       65.88680       85.24883
C         60.19105       64.82292       87.16699
C         58.37384       64.53618       85.59525
C         59.23837       64.00424       86.55430
H         58.07232       70.74285       85.70622
H         59.60546       68.91789       87.56465
H         60.46553       68.50511       85.25080
H         58.78143       68.39868       84.65676
H         61.00827       66.80354       87.32110
H         57.76778       66.28581       84.51647
H         60.85864       64.40817       87.91112
H         57.63087       63.90469       85.12559
H         59.16703       62.95855       86.82426
N         57.19066       67.84592       88.18969
C         55.92391       67.15354       88.40391
C         54.69997       68.02169       88.22892
O         53.80044       67.62214       87.50224
C         56.03859       66.60928       89.82812
C         57.51532       66.29498       89.89823
C         58.11950       67.54415       89.26269
H         55.87730       66.29794       87.69026
H         55.84291       67.41806       90.56740
H         55.36077       65.75387       90.03863
H         57.90684       66.04839       90.90670
H         57.70987       65.42806       89.22140
H         58.13543       68.40034       89.97207
H         59.14288       67.28860       88.93499
N         54.61423       69.24248       88.82800
C         53.47170       70.13530       88.64851
C         53.21551       70.37322       87.17138
O         52.10568       70.11596       86.72377
C         53.67786       71.46648       89.40461
C         53.64891       71.24388       90.92860
C         53.78381       72.52834       91.69169
O         54.77737       72.67408       92.58816
O         52.97377       73.42859       91.53610
H         55.41474       69.55922       89.39652
H         52.55833       69.65522       89.06792
H         52.83952       72.15175       89.14806
H         54.63084       71.94863       89.09048
H         54.46453       70.55666       91.23677
H         52.67815       70.78063       91.20853
N         54.20382       70.79458       86.33743
C         53.98248       70.92552       84.91228
H         53.20326       71.69139       84.71490
H         54.92338       71.22130       84.40336
H         53.64980       69.95012       84.49184
H         55.14566       70.98221       86.71220
Ca        59.71293       74.66842       90.79019
O         58.14603       77.17165       90.41257
H         57.26768       77.62247       90.47801
H         58.28410       77.03173       89.44214
O         58.64884       72.18325       92.76210
H         59.18632       72.17992       93.59370
H         58.60598       71.23212       92.49020
O         61.66305       73.69591       93.15412
H         61.50543       73.75786       94.12961
H         62.14369       72.83861       93.03533
O         59.25029       75.46976       94.11006
H         59.11634       76.05183       93.32113
H         59.43914       76.09854       94.85061
O         61.07488       71.95206       90.49890
H         61.36389       72.32937       89.63030
H         61.39201       71.01460       90.48295
O         56.89994       74.81783       92.29084
H         56.18596       74.61992       91.63546
H         56.72342       75.75025       92.57243

Ca 1.0



