%chk=apoCaM-CA-Ng.loop3.water6.frame78.chk
%nprocshared=20
%mem=10GB
%nosave
#b3lyp/svp scf=(tight,noincore,xqc) Test 
#IOP(5/87=12) Density=Current Pop=(MK,readradii) iop(6/33=2) iop(6/42=6)

apoCaM-CA-Ng.loop3.water6.frame78 

   0  1 
C         72.15420       73.37275       42.73808
C         73.59005       73.23312       42.32426
O         73.89205       73.48828       41.17042
H         71.52557       72.69648       42.12098
H         72.01081       73.10365       43.80599
H         71.82103       74.42034       42.58728
N         74.52904       72.81328       43.22108
C         75.95639       72.61727       42.95665
C         76.27157       71.43677       42.04389
O         77.43983       71.07860       41.97533
C         76.64303       73.90579       42.45722
C         76.43930       75.04767       43.41123
O         76.89162       74.95938       44.67666
O         75.87130       76.06321       43.04223
H         74.21953       72.62962       44.18783
H         76.41794       72.34621       43.93355
H         76.25500       74.17848       41.45687
H         77.73590       73.73379       42.35118
N         75.31827       70.76997       41.32926
C         75.58990       69.57148       40.54883
C         75.47019       69.92448       39.08843
O         74.64664       69.36393       38.37557
C         74.58559       68.47437       40.95708
C         74.57615       68.24118       42.47160
C         73.46782       67.26018       42.86407
C         73.30253       67.14599       44.38689
N         74.50323       66.62651       45.04104
H         74.34415       71.08905       41.33055
H         76.62469       69.20187       40.72409
H         74.81527       67.52780       40.41910
H         73.56626       68.80991       40.66014
H         74.36210       69.20139       42.98866
H         75.57396       67.87461       42.79125
H         73.66793       66.26281       42.41708
H         72.50050       67.63540       42.46058
H         72.45016       66.46206       44.59138
H         73.04820       68.14363       44.81187
H         74.30267       66.49687       46.05844
H         74.76931       65.70531       44.62445
H         75.29427       67.30328       44.95242
N         76.28549       70.88608       38.57777
C         76.16436       71.36578       37.20752
C         77.43123       72.11902       36.79239
O         78.26824       72.42341       37.63249
C         74.85098       72.20917       37.13081
C         74.40787       72.64288       35.76984
O         73.24266       72.18317       35.28497
O         75.06404       73.42444       35.10708
H         76.99251       71.29328       39.20743
H         76.10759       70.47508       36.54293
H         74.92734       73.09222       37.78774
H         74.01862       71.59452       37.53087
N         77.66878       72.40614       35.48467
C         78.84976       73.11922       35.02698
C         78.93640       74.48434       35.66210
O         79.97370       74.82600       36.21183
H         76.99405       72.09809       34.77174
H         78.78221       73.24625       33.92645
H         79.76769       72.53030       35.24538
N         77.85044       75.30224       35.65202
C         77.82496       76.63958       36.22567
C         76.90792       76.70778       37.43903
O         76.68684       77.80332       37.93852
C         77.31030       77.61700       35.15032
C         78.10603       77.53969       33.87291
N         79.42641       77.82922       33.85742
O         77.54744       77.20903       32.83740
H         76.98131       74.95680       35.22214
H         78.83848       76.95708       36.55439
H         77.34048       78.65850       35.53639
H         76.24973       77.36659       34.92734
H         79.91507       78.11163       34.71870
H         79.96106       77.76992       32.97839
N         76.33897       75.59165       37.98254
C         75.37817       75.65966       39.07053
C         74.06970       76.24817       38.59615
O         73.93834       76.54153       37.41581
H         76.58484       74.66078       37.62446
H         75.80476       76.24682       39.91226
H         75.16579       74.63888       39.43380
N         73.04829       76.47174       39.47070
C         71.79627       77.08618       39.03548
C         70.94154       76.09419       38.24107
O         71.27593       74.91937       38.17192
C         71.05350       77.69516       40.25722
C         69.87468       78.56851       39.87868
C         70.05360       79.67846       39.02851
C         68.58408       78.27751       40.35239
C         68.96132       80.45721       38.63840
C         67.49361       79.06450       39.96630
C         67.67881       80.15342       39.10219
O         66.63571       80.91361       38.71221
H         73.20257       76.27629       40.47246
H         72.06950       77.93193       38.36942
H         71.76712       78.34484       40.80842
H         70.74277       76.87455       40.94111
H         71.03389       79.93275       38.64796
H         68.41729       77.43787       41.01447
H         69.11275       81.29527       37.96935
H         66.50445       78.82353       40.33447
H         65.73111       80.73860       39.00810
N         69.82000       76.52683       37.59931
C         68.92648       75.69963       36.79948
C         68.90551       76.26678       35.39051
O         69.16721       75.51920       34.46376
C         67.50523       75.66928       37.43328
C         67.58503       75.09125       38.87117
C         66.54119       74.81347       36.57992
C         66.26525       75.15907       39.64074
H         69.57860       77.51774       37.66409
H         69.28784       74.64615       36.75651
H         67.12243       76.71372       37.47735
H         68.32600       75.66428       39.46027
H         67.93360       74.03552       38.83386
H         66.86817       73.75260       36.56272
H         65.50508       74.86882       36.96944
H         66.49609       75.15727       35.53332
H         66.42084       74.76442       40.66681
H         65.91905       76.21155       39.71394
H         65.47847       74.54223       39.16309
N         68.65170       77.58918       35.14619
C         68.70266       78.14165       33.79676
C         67.49700       77.73397       32.96939
O         67.54827       77.90783       31.76030
C         68.84058       79.66705       33.82700
O         70.01184       80.00840       34.52180
H         68.48566       78.22993       35.93544
H         69.62173       77.74866       33.30522
H         67.93961       80.10178       34.31931
H         68.91382       80.06354       32.79035
H         69.83022       80.85600       35.00322
N         66.39089       77.16146       33.54187
C         65.24325       76.65044       32.79610
C         65.62113       75.48720       31.87867
O         64.77024       75.05511       31.11128
C         64.55472       77.78960       32.02496
H         66.34443       77.07944       34.56396
H         64.49003       76.26565       33.51954
H         64.27078       78.60082       32.72940
H         65.20183       78.21612       31.23342
H         63.62628       77.41818       31.54115
N         66.87042       74.93012       31.89612
C         67.33364       73.92787       30.94951
C         67.83255       72.66992       31.64104
O         67.84017       72.60082       32.86330
C         68.48278       74.55472       30.15160
H         67.56591       75.25424       32.57742
H         66.52167       73.64380       30.24541
H         68.87773       73.86162       29.38238
H         68.13060       75.47716       29.64389
H         69.31123       74.83041       30.83900
N         68.26918       71.62488       30.87784
C         68.85675       70.37815       31.36248
C         68.10150       69.81888       32.55086
O         68.68450       69.59665       33.60379
C         70.39725       70.50065       31.54865
C         71.04565       71.05831       30.26146
C         72.54189       70.89431       30.13977
O         73.41395       71.42811       31.01309
O         72.99001       70.28575       29.18110
H         68.18171       71.71047       29.85356
H         68.73756       69.62833       30.54861
H         70.79108       69.47988       31.74929
H         70.65497       71.14281       32.41232
H         70.79040       72.13541       30.16676
H         70.60450       70.52297       29.39245
N         66.76801       69.57473       32.43608
C         65.97537       69.05954       33.52950
H         64.91926       68.94358       33.20460
H         66.36214       68.06821       33.84634
H         66.00732       69.76577       34.38614
H         66.29621       69.76756       31.53934
Ca        72.97902       72.16779       33.06841
O         74.42139       74.65465       30.51382
H         74.49465       75.54630       30.08988
H         74.27706       74.02953       29.76000
O         70.54414       73.39043       33.69617
H         70.19382       73.46809       32.77605
H         71.22644       74.10304       33.73469
O         71.72740       75.84741       31.49407
H         71.73399       75.78476       30.50593
H         71.11262       76.59778       31.69029
O         76.07320       73.21170       32.40245
H         77.02236       73.48627       32.35225
H         76.09681       72.22205       32.39010
O         74.27847       76.64900       32.91471
H         74.96398       76.01543       33.24520
H         74.13821       77.28106       33.66383
O         72.55049       75.68343       35.13152
H         71.92357       76.38977       35.42734
H         72.42842       74.94857       35.78313

Ca 1.0



