%chk=apoCaM-CA-Ng.loop2.water2.frame985.chk
%nprocshared=20
%mem=10GB
%nosave
#b3lyp/svp scf=(tight,noincore,xqc) Test 
#IOP(5/87=12) Density=Current Pop=(MK,readradii) iop(6/33=2) iop(6/42=6)

apoCaM-CA-Ng.loop2.water2.frame985 

   -2  1 
C         38.02266      107.95374       69.83749
C         37.11581      107.32458       70.85015
O         35.91196      107.52884       70.77963
H         38.58218      107.16055       69.29772
H         37.43731      108.54029       69.09714
H         38.74033      108.62819       70.34767
N         37.63298      106.50805       71.81068
C         36.81507      105.81793       72.79747
C         36.83545      104.33748       72.46161
O         37.24551      103.51520       73.26950
C         37.32843      106.16247       74.21625
C         36.48560      105.61445       75.34198
O         35.47555      104.96329       75.12419
O         36.84715      105.86405       76.61490
H         38.64972      106.32943       71.81281
H         35.75612      106.15228       72.73040
H         37.34160      107.26849       74.32828
H         38.37016      105.79130       74.33098
N         36.38742      103.94260       71.23522
C         36.33355      102.55463       70.79591
C         37.72949      101.94876       70.75567
O         38.56209      102.49160       70.04175
C         35.71741      102.48119       69.39075
H         36.04994      104.67320       70.58902
H         35.66132      102.01370       71.48587
H         35.64990      101.42761       69.04813
H         34.69597      102.91745       69.39984
H         36.33402      103.05320       68.66222
N         38.11267      100.85687       71.48600
C         37.25168      100.09245       72.39573
C         38.07259       99.24263       73.37260
O         39.28865       99.19680       73.26303
C         36.21905       99.23959       71.61218
C         36.85367       98.22694       70.69934
O         37.57215       98.58646       69.78038
O         36.59114       96.91744       70.86318
H         39.10504      100.58923       71.40128
H         36.71959      100.81487       73.04993
H         35.56971       99.88035       70.98602
H         35.55447       98.71608       72.33156
N         37.46839       98.63037       74.43365
C         38.22157       97.98759       75.50560
C         37.58365       96.69847       75.98117
O         37.09375       96.69528       77.10168
H         36.45245       98.75334       74.56295
H         38.19737       98.69519       76.36323
H         39.29044       97.83195       75.25500
N         37.51547       95.55273       75.24575
C         38.08160       95.36728       73.91853
C         39.57326       95.07675       74.03663
O         39.94273       94.05485       74.59960
C         37.33375       94.19653       73.24249
C         37.64725       93.94589       71.79501
N         37.01306       92.93402       71.16166
O         38.44267       94.64429       71.18556
H         37.00547       94.75936       75.66836
H         37.87987       96.27630       73.31364
H         36.24385       94.41168       73.29305
H         37.52653       93.26087       73.81255
H         36.33132       92.34598       71.66259
H         37.19524       92.73074       70.17437
N         40.49004       95.96126       73.56187
C         41.92860       95.78750       73.69565
C         42.54265       94.82777       72.69630
O         43.76169       94.72924       72.69190
H         40.15300       96.84379       73.16055
H         42.19125       95.51285       74.74004
H         42.40538       96.76993       73.48315
N         41.79815       94.14533       71.77814
C         42.38945       93.39276       70.67391
C         41.97141       94.07285       69.35077
O         42.11135       95.44864       69.53607
C         41.97028       91.90450       70.73548
C         42.59986       91.21789       71.94774
O         40.57419       91.77951       70.81382
H         40.77541       94.22245       71.79652
H         43.50057       93.44639       70.71376
H         42.34635       91.34956       69.84732
H         40.21781       91.98653       69.91295
H         42.26896       91.69686       72.89287
H         42.30996       90.14604       71.96714
H         43.70832       91.27623       71.88157
N         42.85771       93.67834       68.24632
C         42.37509       94.06887       66.90568
C         41.48524       92.97082       66.33499
O         41.89527       91.81821       66.30923
C         43.59325       94.36465       65.98124
C         43.11638       94.80723       64.56791
C         44.47313       95.45905       66.62458
C         44.25264       95.06029       63.57395
H         43.16267       92.67976       68.27280
H         41.80178       95.02364       66.96481
H         44.20094       93.43794       65.88378
H         42.49959       95.72953       64.64563
H         42.48737       94.00585       64.12838
H         45.38791       95.64733       66.02931
H         43.90461       96.40939       66.72441
H         44.82019       95.14863       67.63189
H         44.87594       94.14823       63.46224
H         43.82306       95.32100       62.58337
H         44.89102       95.91028       63.88805
N         40.26279       93.27831       65.82090
C         39.32151       92.29601       65.29691
C         39.14057       92.42268       63.79414
O         38.47662       91.56810       63.22416
C         37.94318       92.51645       65.94964
C         38.02834       92.57582       67.44023
O         37.74076       93.61221       68.01824
O         38.43381       91.50200       68.14188
H         39.99056       94.26212       65.78903
H         39.69183       91.26949       65.51421
H         37.22958       91.71937       65.64846
H         37.53887       93.49180       65.59143
N         39.63233       93.48900       63.09326
C         39.40026       93.66779       61.66783
C         39.78064       95.08873       61.23779
O         40.91659       95.48030       61.46603
C         40.17160       92.60863       60.83668
C         39.99810       92.84285       59.35074
C         40.81140       93.78273       58.69074
C         39.01336       92.15852       58.61778
C         40.63610       94.04387       57.33145
C         38.83909       92.42579       57.25418
C         39.64794       93.36918       56.61331
H         40.12674       94.23874       63.59231
H         38.32152       93.50805       61.49286
H         39.79250       91.59692       61.09547
H         41.25616       92.60974       61.08163
H         41.58125       94.31839       59.23034
H         38.37034       91.43466       59.10227
H         41.26475       94.77403       56.83822
H         38.07244       91.90710       56.69371
H         39.50997       93.57918       55.56068
N         38.90996       95.89601       60.54154
C         39.28457       97.17462       59.93684
C         39.70078       98.30208       60.86645
O         40.08455       99.34725       60.35870
C         38.00645       97.61402       59.21198
C         37.40111       96.29405       58.81091
C         37.59829       95.47698       60.07737
H         40.10519       96.95612       59.21744
H         37.30081       98.06599       59.95008
H         38.16961       98.33833       58.38710
H         36.34985       96.33811       58.45668
H         38.03887       95.85910       58.00715
H         36.84676       95.73038       60.85820
H         37.52330       94.41327       59.77373
N         39.58800       98.20944       62.21853
C         39.86748       99.33749       63.11312
C         41.31719       99.81142       63.09146
O         41.58433      100.85298       63.67624
C         39.41258       99.00623       64.54926
C         40.17608       97.82036       65.14105
C         39.50735       97.32091       66.37573
O         38.98994       96.21969       66.37562
O         39.59493       97.98243       67.53196
H         39.19453       97.34174       62.60504
H         39.23994      100.18840       62.76610
H         38.33292       98.74386       64.49351
H         39.51404       99.88881       65.21963
H         41.23918       98.07562       65.34823
H         40.19101       96.97236       64.43032
N         42.30571       99.12848       62.44710
C         43.66243       99.63060       62.38845
H         44.30850       98.91931       61.83189
H         43.67754      100.60825       61.85916
H         44.07088       99.76039       63.41306
H         42.10686       98.23170       61.98297
Ca        40.14068       96.43394       69.03792
O         36.25746       96.72161       67.39784
H         35.82536       96.10449       66.75520
H         35.79498       97.58663       67.26314
O         40.92508       98.23428       71.06887
H         41.03929       98.63569       70.17160
H         39.97088       97.96938       71.09869

Ca 1.0



