%chk=apoCaM-CA-Ng.loop2.water4.frame457.chk
%nprocshared=20
%mem=10GB
%nosave
#b3lyp/svp scf=(tight,noincore,xqc) Test 
#IOP(5/87=12) Density=Current Pop=(MK,readradii) iop(6/33=2) iop(6/42=6)

apoCaM-CA-Ng.loop2.water4.frame457 

   -2  1 
C         64.11259       82.99571       67.19463
C         64.51806       84.22042       66.42504
O         65.69741       84.54283       66.41108
H         63.02091       82.80826       67.11622
H         64.64915       82.11041       66.79190
H         64.37377       83.12128       68.26512
N         63.59230       84.94568       65.73597
C         63.94250       86.11249       64.93423
C         64.45596       87.24052       65.81333
O         63.70202       87.74612       66.63389
C         62.71002       86.59454       64.13394
C         62.99172       87.74229       63.19479
O         62.08127       88.20413       62.52654
O         64.22823       88.26418       63.07051
H         62.61072       84.62705       65.74991
H         64.71914       85.80141       64.19964
H         61.91048       86.90213       64.84392
H         62.32447       85.74807       63.52547
N         65.73157       87.69855       65.66929
C         66.26143       88.84780       66.39016
C         67.35735       88.40324       67.32777
O         68.31471       87.78390       66.88226
C         66.78843       89.87696       65.38832
H         66.35710       87.22116       65.00132
H         65.46340       89.34706       66.98170
H         67.18400       90.76589       65.92467
H         67.60019       89.44277       64.76543
H         65.96505       90.20603       64.71910
N         67.26932       88.67799       68.66144
C         68.26191       88.21079       69.62411
C         69.62921       88.81448       69.34520
O         69.72693       89.79080       68.61343
C         67.84938       88.55241       71.07797
C         66.55925       87.90043       71.50647
O         65.50627       88.17355       70.95383
O         66.55609       87.03431       72.53724
H         66.45506       89.21299       68.99559
H         68.33613       87.10536       69.52286
H         67.75190       89.65485       71.19424
H         68.64728       88.20587       71.76962
N         70.73878       88.25872       69.91008
C         72.08093       88.79351       69.74678
C         72.99529       87.80363       69.06693
O         73.55832       88.13604       68.03303
H         70.62372       87.41668       70.49402
H         72.49125       89.02688       70.75170
H         72.07343       89.73904       69.16188
N         73.21135       86.57144       69.60789
C         74.13900       85.59128       69.04617
C         73.38799       84.36041       68.56718
O         72.17306       84.30826       68.71303
C         75.20067       85.25843       70.11252
C         76.00483       86.49263       70.45255
N         75.96457       87.03481       71.69225
O         76.69415       87.01527       69.58896
H         72.71003       86.31606       70.47293
H         74.65358       86.00014       68.14848
H         75.90294       84.47775       69.75200
H         74.68854       84.86438       71.01842
H         75.38069       86.62291       72.43406
H         76.51032       87.88306       71.90739
N         74.04662       83.35258       67.91923
C         73.36073       82.21772       67.31359
C         73.79828       80.89220       67.88044
O         74.66196       80.84776       68.74747
H         75.06943       83.41540       67.79866
H         73.55752       82.22069       66.22060
H         72.26203       82.29176       67.45953
N         73.17683       79.75516       67.45056
C         73.43850       78.42955       68.00433
C         72.30724       77.97913       68.92714
O         72.50675       77.02518       69.66017
C         73.71529       77.38917       66.88515
C         72.51549       77.14702       65.94697
O         74.85192       77.75311       66.14201
H         72.42861       79.85788       66.74735
H         74.33981       78.48070       68.65437
H         73.93882       76.41558       67.37298
H         74.62249       78.55832       65.60823
H         72.24224       78.06415       65.38540
H         72.77093       76.36027       65.20594
H         71.63014       76.80373       66.52114
N         71.11760       78.65149       68.97510
C         70.03878       78.37882       69.92850
C         69.31567       79.68714       70.26524
O         69.71511       80.73918       69.78728
C         69.09254       77.22182       69.45075
C         68.50072       77.38196       68.02887
C         69.79737       75.85838       69.53750
C         67.58406       78.58736       67.84826
H         70.98248       79.44410       68.33890
H         70.47400       78.08275       70.90844
H         68.25226       77.13718       70.16947
H         67.88313       76.48182       67.81169
H         69.31689       77.42418       67.27664
H         70.60814       75.76796       68.78872
H         70.20753       75.70044       70.55904
H         69.07167       75.03997       69.34320
H         68.14246       79.53680       67.94759
H         67.15053       78.56103       66.82614
H         66.75363       78.55268       68.58506
N         68.24030       79.69789       71.10500
C         67.56917       80.92876       71.50137
C         67.45925       80.94860       73.02256
O         66.39569       81.19964       73.56734
C         66.23890       80.98609       70.72897
C         65.45371       82.23211       70.95872
O         64.17325       82.13995       71.35803
O         65.94815       83.32446       70.73290
H         67.87061       78.81333       71.47721
H         68.17347       81.81345       71.20297
H         65.61803       80.09919       70.97500
H         66.47356       80.94675       69.64251
N         68.54962       80.58385       73.75824
C         68.58667       80.39569       75.21096
C         67.38771       79.57644       75.69027
O         67.15929       78.51252       75.12982
C         69.88956       79.62088       75.54517
C         70.07177       79.29476       77.00650
C         70.30467       80.31091       77.94604
C         70.03013       77.95616       77.43771
C         70.48643       79.99230       79.29630
C         70.20819       77.64268       78.78716
C         70.43676       78.65980       79.71632
H         69.39851       80.33045       73.22834
H         68.60753       81.38542       75.70875
H         70.77816       80.19139       75.19719
H         69.86550       78.67159       74.96289
H         70.34917       81.34617       77.63235
H         69.85490       77.15366       76.73146
H         70.66765       80.77812       80.01754
H         70.17061       76.61033       79.11102
H         70.57762       78.41419       80.76083
N         66.59112       79.97020       76.73803
C         65.50543       79.15432       77.25545
C         64.19330       79.39923       76.52469
O         63.25743       78.64727       76.75999
C         65.40331       79.62010       78.71157
C         65.66115       81.11184       78.57091
C         66.82426       81.13100       77.57967
H         65.75563       78.07035       77.22501
H         64.46285       79.34225       79.23483
H         66.26106       79.19081       79.27868
H         64.76863       81.56374       78.08382
H         65.85422       81.66176       79.51626
H         66.84077       82.09130       77.02152
H         67.77837       80.98113       78.12028
N         64.01627       80.46788       75.69329
C         62.74504       80.74750       75.04153
C         62.44715       79.66993       74.01776
O         61.41135       79.02723       74.12462
C         62.72631       82.19927       74.49569
C         61.37082       82.56671       73.86640
C         61.08443       84.05279       73.88938
O         61.85939       84.97303       73.27961
O         60.10233       84.44627       74.49901
H         64.78521       81.14000       75.56449
H         61.94378       80.73085       75.81631
H         63.55150       82.40445       73.78441
H         62.88501       82.84687       75.38687
H         60.56328       82.09189       74.46707
H         61.30933       82.15434       72.83646
N         63.33689       79.37083       73.03418
C         63.10844       78.28855       72.09999
H         62.19257       78.48373       71.50396
H         63.97393       78.18807       71.41181
H         62.99062       77.33076       72.65320
H         64.21785       79.89847       72.97012
Ca        63.78195       84.73663       72.14266
O         65.75957       84.51997       74.33827
H         66.36426       83.96236       74.88863
H         65.33315       85.13988       74.98214
O         65.36022       85.75467       69.32840
H         66.26450       85.65006       68.93927
H         64.85389       86.26607       68.64995
O         61.96619       84.48498       69.64815
H         61.44388       84.26323       70.45980
H         61.51881       85.28614       69.27635
O         63.08197       87.81932       72.69757
H         62.16243       88.17271       72.59994
H         63.61927       88.59956       72.98553

Ca 1.0



