%chk=apoCaM-CA-Ng.loop3.water3.frame895.chk
%nprocshared=20
%mem=10GB
%nosave
#b3lyp/svp scf=(tight,noincore,xqc) Test 
#IOP(5/87=12) Density=Current Pop=(MK,readradii) iop(6/33=2) iop(6/42=6)

apoCaM-CA-Ng.loop3.water3.frame895 

   0  1 
C         19.69372       -1.98858        3.23361
C         19.51046       -1.86176        1.74896
O         19.14125       -2.83886        1.11363
H         20.01656       -1.02757        3.68747
H         18.72890       -2.28390        3.69823
H         20.45807       -2.76115        3.45503
N         19.72033       -0.66794        1.12727
C         19.46886       -0.46228       -0.29829
C         20.45277       -1.27542       -1.14648
O         21.46093       -1.71897       -0.61318
C         19.51666        1.06623       -0.57939
C         18.86282        1.57501       -1.83681
O         18.83099        2.90067       -2.05894
O         18.29690        0.83450       -2.61765
H         20.00412        0.13655        1.70877
H         18.44419       -0.80661       -0.49034
H         20.57014        1.41352       -0.52071
H         18.95131        1.57703        0.22999
N         20.22710       -1.50997       -2.47331
C         21.17666       -2.19163       -3.35363
C         21.77919       -1.22447       -4.36892
O         22.77624       -1.57905       -4.98218
C         20.50008       -3.37260       -4.08226
C         20.12571       -4.52314       -3.13754
C         19.44568       -5.66335       -3.91369
C         19.23324       -6.89806       -3.02686
N         18.58733       -7.97760       -3.77504
H         19.35151       -1.18115       -2.88983
H         22.04035       -2.56891       -2.76394
H         21.20401       -3.78389       -4.83912
H         19.59702       -3.00443       -4.61811
H         19.44698       -4.16872       -2.33215
H         21.06237       -4.90227       -2.67367
H         20.08706       -5.96208       -4.77180
H         18.46820       -5.30722       -4.30888
H         18.60671       -6.63265       -2.14715
H         20.22266       -7.25376       -2.66086
H         18.50169       -8.81842       -3.15917
H         17.63149       -7.68185       -4.07935
H         19.16027       -8.23318       -4.61238
N         21.24188        0.00659       -4.59902
C         21.83089        1.02024       -5.46761
C         22.01393        2.36184       -4.71674
O         22.48817        3.31203       -5.32299
C         20.96730        1.16900       -6.74020
C         19.52844        1.41205       -6.41721
O         19.24350        2.34670       -5.51152
O         18.63887        0.74549       -6.92044
H         20.35147        0.25440       -4.15307
H         22.84072        0.71113       -5.81537
H         21.03957        0.25266       -7.36596
H         21.36194        2.01872       -7.33771
N         21.71044        2.49308       -3.38889
C         21.97152        3.67150       -2.56962
C         21.05327        4.88015       -2.72524
O         21.19791        5.76603       -1.89410
H         21.38384        1.67053       -2.86865
H         23.03482        3.97777       -2.67328
H         21.83536        3.35519       -1.51126
N         20.11585        5.03172       -3.71198
C         19.25040        6.21716       -3.79949
C         17.74925        5.84029       -3.98378
O         17.51822        5.32300       -5.25718
C         19.75824        7.14190       -4.92449
C         21.10147        7.73094       -4.55963
N         22.20696        7.46929       -5.29328
O         21.18837        8.45832       -3.58062
H         20.05611        4.32952       -4.45585
H         19.29771        6.79447       -2.84981
H         19.05717        7.99040       -5.07568
H         19.81590        6.56744       -5.87497
H         22.16413        6.85395       -6.11750
H         23.11492        7.87937       -5.02632
N         16.89308        7.01388       -3.78462
C         15.46004        6.76425       -4.01875
C         14.84513        5.79033       -3.03327
O         15.02677        5.96511       -1.83653
H         17.02401        7.38140       -2.81402
H         15.27644        6.44988       -5.07025
H         14.93753        7.73541       -3.88989
N         14.01821        4.79293       -3.46633
C         13.29813        3.91214       -2.54383
C         14.22046        2.87924       -1.91405
O         15.40300        2.86832       -2.21977
C         12.11294        3.21313       -3.25745
C         11.10588        4.18788       -3.82947
C         10.50214        5.16421       -3.01377
C         10.73839        4.11107       -5.18345
C          9.56414        6.05222       -3.54643
C          9.78812        4.99206       -5.71044
C          9.20136        5.96701       -4.89708
O          8.29036        6.81162       -5.42126
H         13.81809        4.72574       -4.47645
H         12.87112        4.52807       -1.72486
H         11.55700        2.59032       -2.52785
H         12.49928        2.53495       -4.04983
H         10.75424        5.24722       -1.96521
H         11.17527        3.36043       -5.83000
H          9.11681        6.80259       -2.90632
H          9.50558        4.91482       -6.75265
H          7.86254        7.49988       -4.89173
N         13.72059        1.97700       -1.00787
C         14.49099        0.93392       -0.32931
C         15.01418       -0.09445       -1.33402
O         15.63309        0.28747       -2.31562
C         15.60265        1.54320        0.57738
C         16.34246        0.46747        1.41950
C         15.02959        2.63741        1.50067
C         15.49444       -0.29369        2.44519
H         12.72410        2.03727       -0.75625
H         13.78936        0.40937        0.35373
H         16.36454        2.02763       -0.06942
H         17.17693        0.95752        1.96736
H         16.77591       -0.28167        0.73934
H         14.22700        2.23514        2.15331
H         15.83286        3.06560        2.13702
H         14.59736        3.46974        0.90720
H         15.06530        0.39062        3.20393
H         14.67880       -0.86361        1.96005
H         16.14162       -1.02452        2.97499
N         14.83285       -1.43237       -1.13188
C         15.29350       -2.45510       -2.07323
C         14.25702       -3.53659       -2.35977
O         14.55851       -4.41482       -3.15471
C         16.55992       -3.13157       -1.52528
O         16.31278       -3.76103       -0.29548
H         14.42129       -1.73249       -0.23603
H         15.56431       -1.98818       -3.04418
H         17.37651       -2.39429       -1.43205
H         16.93667       -3.89044       -2.24372
H         16.43319       -3.07204        0.40918
N         13.05503       -3.59697       -1.71225
C         12.16721       -4.74756       -1.85142
C         11.57931       -4.85848       -3.25109
O         11.59768       -3.86763       -3.96912
C         11.03976       -4.63733       -0.82488
H         12.79878       -2.86659       -1.03713
H         12.77006       -5.65033       -1.61684
H         11.46330       -4.56890        0.19934
H         10.42383       -3.73310       -1.02091
H         10.39476       -5.52360       -0.86321
N         11.03787       -6.01366       -3.74900
C         11.13183       -7.33174       -3.12060
C          9.99104       -8.23417       -3.59204
O          9.80714       -8.33811       -4.79702
C         12.46251       -7.97499       -3.52943
H         10.71496       -5.98141       -4.72926
H         11.15136       -7.25394       -2.02161
H         13.31612       -7.34877       -3.19533
H         12.56328       -8.97572       -3.05630
H         12.52615       -8.09076       -4.63269
N          9.21195       -8.98698       -2.75408
C          9.37959       -9.07020       -1.30535
C          8.96337       -7.80267       -0.57863
O          9.28802       -7.67882        0.59428
C          8.59019      -10.27105       -0.72386
C          7.05881      -10.09878       -0.80463
C          6.35029      -11.31442       -0.28285
O          6.53865      -11.71606        0.98878
O          5.58869      -11.93725       -1.00552
H          8.52388       -9.61086       -3.20342
H         10.45730       -9.27456       -1.11593
H          8.87315      -10.40789        0.34364
H          8.89263      -11.19007       -1.27347
H          6.74442       -9.91855       -1.85371
H          6.74245       -9.22591       -0.19437
N          8.18343       -6.85756       -1.18093
C          7.71129       -5.66591       -0.50355
H          6.60280       -5.68264       -0.46145
H          8.10041       -5.58398        0.53355
H          8.03398       -4.76858       -1.07035
H          7.87183       -6.99179       -2.15292
Ca        17.28041        3.12751       -4.90269
O         15.43179        3.31094       -7.25424
H         14.71241        3.53358       -6.61130
H         16.01885        4.10819       -7.25440
O         17.23279       -0.99105       -4.87996
H         16.97843       -1.90570       -5.15953
H         18.21551       -0.96643       -4.98851
O         14.65063        0.88307       -5.07667
H         14.38698        0.90364       -6.03045
H         14.27862        0.03094       -4.73603

Ca 1.0



