%chk=apoCaM-CA-Ng.loop1.water1.frame1268.chk
%nprocshared=20
%mem=10GB
%nosave
#b3lyp/svp scf=(tight,noincore,xqc) Test 
#IOP(5/87=12) Density=Current Pop=(MK,readradii) iop(6/33=2) iop(6/42=6)

apoCaM-CA-Ng.loop1.water1.frame1268 

   0  1 
C         64.60622       28.09739       21.39316
C         65.82116       28.89050       21.78620
O         65.71722       29.73852       22.65944
H         63.81897       28.78563       21.01896
H         64.83931       27.36886       20.58722
H         64.21767       27.54021       22.27023
N         67.00864       28.67979       21.15433
C         68.22920       29.43783       21.41813
C         68.60189       30.26855       20.19297
O         69.72400       30.75296       20.11480
C         69.37135       28.46256       21.77303
C         69.12512       27.65674       23.02284
O         69.97229       26.86198       23.39646
O         67.99747       27.80416       23.74574
H         67.04925       27.96968       20.40632
H         68.10832       30.13257       22.26727
H         70.30435       29.04502       21.93902
H         69.53816       27.76719       20.92190
N         67.69383       30.49313       19.20290
C         67.98446       31.17302       17.94753
C         68.57653       32.57314       18.11690
O         69.59965       32.80581       17.48923
C         66.75951       31.14289       16.99904
C         66.41283       29.67742       16.64070
C         65.33549       29.53820       15.56313
C         65.12818       28.04733       15.23679
N         64.15929       27.86244       14.15929
H         66.73298       30.14964       19.33560
H         68.76772       30.58168       17.41990
H         67.03600       31.66918       16.05947
H         65.88349       31.66160       17.44662
H         66.07800       29.12091       17.54084
H         67.33402       29.18858       16.25395
H         65.66936       30.06956       14.64577
H         64.38082       29.98642       15.91482
H         64.77606       27.51067       16.14663
H         66.09814       27.59765       14.92479
H         64.49977       28.33235       13.28918
H         64.05620       26.83887       13.96918
H         63.23059       28.25291       14.43756
N         68.10473       33.55665       18.94092
C         66.98062       33.45689       19.86289
C         67.49797       33.37084       21.29373
O         68.69485       33.52107       21.51379
C         65.97807       34.60951       19.63226
C         66.52996       36.00146       19.82090
O         67.79050       36.21623       20.23653
O         65.81557       36.95931       19.58550
H         68.66460       34.42165       18.96758
H         66.42877       32.51814       19.68010
H         65.10755       34.48962       20.31223
H         65.61051       34.53018       18.58620
N         66.66655       32.99712       22.30465
C         67.16656       32.63529       23.62268
C         67.65428       33.78369       24.46130
O         67.50686       34.93581       24.08985
H         65.67272       32.81581       22.09501
H         67.99991       31.91703       23.50194
H         66.36207       32.12937       24.19836
N         68.27612       33.49443       25.63950
C         68.70109       34.48401       26.62797
C         68.19652       34.03765       28.00958
O         67.69491       32.92550       28.10360
C         70.23982       34.57579       26.58940
C         70.72623       34.95690       25.21607
O         71.52040       34.11702       24.52462
O         70.39869       36.02289       24.71900
H         68.47206       32.50100       25.84212
H         68.26820       35.47450       26.37664
H         70.67409       33.59011       26.86665
H         70.61848       35.33101       27.29983
N         68.25648       34.78599       29.15098
C         68.70766       36.15566       29.29582
C         67.83483       37.11765       28.53193
O         66.61816       37.02231       28.61362
H         67.90609       34.34327       30.01628
H         69.78174       36.26855       29.05409
H         68.60582       36.42773       30.36923
N         68.40235       38.13310       27.83078
C         67.63196       39.14373       27.11417
C         66.95747       38.53342       25.89431
O         67.62379       37.86418       25.11938
C         68.53954       40.34359       26.76149
C         67.78428       41.43640       26.00264
O         69.64564       39.92435       26.01524
H         69.43055       38.21961       27.85946
H         66.85945       39.56500       27.79631
H         68.88990       40.76679       27.73411
H         70.36020       40.60008       26.15774
H         67.44652       41.06423       25.01187
H         66.90038       41.77282       26.58530
H         68.45493       42.30612       25.84071
N         65.62747       38.76206       25.66698
C         64.82762       38.21178       24.57046
C         65.38717       38.61373       23.21136
O         66.41639       38.09705       22.80076
C         64.64410       36.67684       24.74110
C         63.92232       36.38782       26.08397
C         63.87529       36.05707       23.55476
C         63.94697       34.91476       26.48920
H         65.12802       39.37857       26.32559
H         63.81239       38.66184       24.65267
H         65.64647       36.22201       24.77990
H         62.87182       36.75073       26.03145
H         64.42756       36.93433       26.90725
H         63.78101       34.95851       23.66458
H         62.86060       36.50080       23.47067
H         64.41649       36.22580       22.60021
H         63.43638       34.80010       27.46891
H         63.42396       34.27221       25.75503
H         64.99889       34.57328       26.59993
N         64.74304       39.55698       22.46486
C         65.20277       40.01297       21.15747
C         65.77971       41.42430       21.22531
O         66.16648       41.93659       20.18527
C         64.06686       39.91297       20.10476
C         62.87283       40.83152       20.38709
O         63.61310       38.58511       20.02916
H         63.91329       40.01422       22.86933
H         66.01014       39.36052       20.78926
H         64.50278       40.22557       19.12329
H         63.54916       38.34541       19.06703
H         62.36495       40.55270       21.33211
H         63.19707       41.89161       20.44415
H         62.13459       40.73936       19.56254
N         65.86265       42.12170       22.40049
C         66.32499       43.50613       22.46064
C         67.79126       43.60358       22.06084
O         68.64370       43.12735       22.79808
C         66.09563       44.08277       23.87972
C         66.45021       45.56514       23.97800
O         64.74263       43.92505       24.23296
H         65.53867       41.68036       23.27169
H         65.69536       44.09083       21.75367
H         66.74891       43.52971       24.59230
H         64.71055       43.40129       25.07691
H         65.81696       46.15550       23.28279
H         66.26792       45.91710       25.01581
H         67.51964       45.73482       23.73479
N         68.14070       44.17253       20.86819
C         69.50491       44.26105       20.34689
C         70.23504       42.92946       20.51068
O         71.31404       42.87556       21.08405
C         70.24915       45.48765       20.92801
C         69.49564       46.79695       20.60151
C         70.28355       48.04602       21.02852
C         69.52214       49.36455       20.77447
N         69.24017       49.59846       19.35549
H         67.38467       44.49048       20.24307
H         69.43109       44.44653       19.25133
H         71.25611       45.53676       20.45677
H         70.37621       45.38817       22.02773
H         68.51036       46.79212       21.11679
H         69.32724       46.84188       19.50497
H         71.25503       48.07647       20.48799
H         70.49304       47.98222       22.11806
H         70.14921       50.20229       21.15355
H         68.56916       49.36829       21.34832
H         68.56706       48.88950       18.98793
H         68.80061       50.54168       19.24860
H         70.12571       49.57708       18.79978
N         69.63010       41.79651       20.05764
C         70.15172       40.43858       20.21120
C         69.07296       39.39518       19.78359
O         68.30697       38.95011       20.85914
C         71.47764       40.20016       19.43176
C         71.97166       38.72730       19.49021
C         72.60423       38.30244       20.79580
O         72.02385       37.38359       21.59672
O         73.68798       38.76221       21.11411
H         68.70569       41.91948       19.62281
H         70.38218       40.25562       21.28070
H         72.28536       40.87785       19.77937
H         71.31015       40.44008       18.36827
H         72.74962       38.57957       18.71103
H         71.14267       38.03956       19.22141
N         68.19148       39.74372       18.65871
C         68.90605       39.84293       17.39092
H         69.60064       38.98497       17.25384
H         68.17394       39.83915       16.55653
H         69.44046       40.81157       17.33351
H         67.50849       38.95719       18.55748
Ca        69.81469       37.57977       21.78279
O         70.91665       39.14995       23.80123
H         70.08804       39.63299       23.55056
H         71.64563       39.67770       23.39216

Ca 1.0



