%chk=apoCaM-CA-Ng.loop3.water5.frame355.chk
%nprocshared=20
%mem=10GB
%nosave
#b3lyp/svp scf=(tight,noincore,xqc) Test 
#IOP(5/87=12) Density=Current Pop=(MK,readradii) iop(6/33=2) iop(6/42=6)

apoCaM-CA-Ng.loop3.water5.frame355 

   0  1 
C         89.99186       77.24699       49.97633
C         91.44900       77.03505       49.69176
O         91.80420       76.00797       49.13858
H         89.38963       76.38460       49.61721
H         89.83897       77.35667       51.07078
H         89.64009       78.16688       49.46446
N         92.35927       77.97915       50.05825
C         93.80068       77.86609       49.85199
C         94.34714       76.67489       50.63222
O         95.00765       75.80866       50.07438
C         94.12934       77.84713       48.33896
C         95.60017       77.94700       48.02521
O         95.96343       77.94934       46.86023
O         96.52204       78.05019       49.00302
H         92.01328       78.82984       50.52903
H         94.26434       78.78287       50.28078
H         93.63076       78.71931       47.86247
H         93.72871       76.92346       47.87292
N         94.07310       76.58470       51.96402
C         94.54670       75.51907       52.85425
C         94.06413       74.10930       52.49252
O         94.46718       73.17261       53.16845
C         94.16998       75.88032       54.30968
C         92.64903       75.85752       54.58114
C         92.26955       76.62582       55.85691
C         92.91459       76.08687       57.14040
N         92.52674       76.90856       58.28763
H         93.52658       77.35861       52.37163
H         95.65782       75.51462       52.79820
H         94.56405       76.90470       54.49245
H         94.67785       75.19409       55.02136
H         92.28865       74.80637       54.61967
H         92.10379       76.36439       53.75833
H         91.16351       76.59495       55.96765
H         92.57006       77.68850       55.72281
H         94.02180       76.11083       57.05048
H         92.59388       75.03524       57.30657
H         92.84778       77.89468       58.14537
H         91.48821       76.89377       58.40993
H         92.97823       76.53127       59.15144
N         93.23238       73.87414       51.43599
C         92.79737       72.54686       50.99128
C         93.99393       71.65785       50.65565
O         95.12194       72.13329       50.64771
C         91.83601       72.76213       49.78923
C         91.21213       71.56488       49.13055
O         90.00376       71.40117       49.18424
O         91.94580       70.77979       48.32328
H         92.88199       74.68011       50.91206
H         92.24138       72.06709       51.82614
H         92.36726       73.32912       48.99359
H         91.00772       73.40644       50.15972
N         93.81999       70.32616       50.42210
C         94.91971       69.40839       50.18200
C         95.73395       69.81138       48.98222
O         96.92961       70.01954       49.13696
H         92.87130       69.92710       50.45840
H         94.52018       68.38611       50.02177
H         95.57135       69.37528       51.08336
N         95.15346       69.95547       47.75585
C         95.90640       70.36034       46.57538
C         95.44860       71.72530       46.08456
O         95.13625       71.88388       44.91190
C         95.87746       69.25451       45.49155
C         94.51514       68.99640       44.88661
N         94.31124       69.16751       43.55914
O         93.59494       68.61305       45.59088
H         94.14316       69.78848       47.66785
H         96.97810       70.48924       46.84126
H         96.25561       68.30697       45.93300
H         96.58520       69.54753       44.68554
H         95.07514       69.47807       42.94125
H         93.38630       68.98636       43.14301
N         95.45585       72.78888       46.93988
C         95.23588       74.15690       46.49748
C         93.86762       74.45462       45.91924
O         93.72965       75.53076       45.35439
H         95.72338       72.63908       47.92451
H         95.99590       74.37406       45.71632
H         95.41468       74.86014       47.33960
N         92.80627       73.60363       46.03430
C         91.49819       73.88496       45.44073
C         91.06003       72.72791       44.55779
O         91.56479       71.62110       44.69605
C         90.49526       74.21556       46.56397
C         89.06418       74.46137       46.14167
C         88.72391       75.47325       45.22615
C         88.04154       73.67590       46.69888
C         87.38630       75.67249       44.85946
C         86.70951       73.87833       46.33664
C         86.37643       74.87410       45.41011
O         85.09381       75.07056       45.04376
H         92.91304       72.73872       46.58489
H         91.56672       74.78034       44.78482
H         90.85545       75.13106       47.07061
H         90.51834       73.38797       47.29607
H         89.49054       76.09880       44.78736
H         88.27406       72.90584       47.42224
H         87.13390       76.44270       44.14163
H         85.93878       73.25906       46.77820
H         84.37074       74.53330       45.39907
N         90.17622       72.96046       43.54715
C         89.77901       71.96712       42.55264
C         91.02729       71.44777       41.85381
O         91.16302       70.23887       41.73305
C         88.73242       72.57690       41.56021
C         87.42901       72.93659       42.32857
C         88.39643       71.59930       40.41786
C         86.40798       73.71900       41.49969
H         89.82511       73.92093       43.43692
H         89.28042       71.10655       43.05428
H         89.17134       73.49709       41.11333
H         87.66817       73.57183       43.19728
H         86.95333       72.00990       42.71951
H         87.69089       72.04626       39.69069
H         89.29756       71.36082       39.83850
H         87.96540       70.65540       40.81392
H         85.53340       73.96685       42.13781
H         86.85880       74.66663       41.13625
H         86.03287       73.13281       40.63814
N         92.02919       72.28995       41.45726
C         93.27471       71.77354       40.89286
C         93.07648       71.18188       39.50655
O         93.95271       70.45968       39.05239
C         94.37727       72.84254       40.88410
O         94.01537       73.94122       40.09146
H         91.93421       73.30061       41.63906
H         93.62973       70.96598       41.56863
H         95.34501       72.40809       40.53987
H         94.54971       73.19858       41.92315
H         94.27811       73.72081       39.16038
N         91.94673       71.43723       38.78266
C         91.62744       70.83917       37.49353
C         91.52168       69.32854       37.63627
O         92.18688       68.59277       36.92071
C         92.62418       71.29115       36.41451
H         91.24856       72.08706       39.16587
H         90.62531       71.21289       37.18515
H         93.65374       70.94092       36.63164
H         92.31978       70.89312       35.42376
H         92.63463       72.40091       36.35670
N         90.70983       68.80916       38.60130
C         90.57852       67.39006       38.89249
C         89.11529       66.99377       38.91081
O         88.35116       67.58997       39.65771
C         91.19523       67.11115       40.26319
H         90.19864       69.46012       39.21069
H         91.13601       66.77571       38.15238
H         91.12071       66.02933       40.50391
H         92.26815       67.40022       40.25806
H         90.67481       67.69263       41.05231
N         88.66030       65.97260       38.12824
C         87.27768       65.50089       38.11594
C         86.34801       66.60874       37.65413
O         85.41906       66.96777       38.36635
C         86.85994       64.91237       39.49277
C         87.74843       63.74988       39.96281
C         87.67558       62.57088       39.03446
O         86.49650       61.95913       38.81025
O         88.68473       62.15516       38.48843
H         89.32772       65.49055       37.50751
H         87.19473       64.68291       37.36658
H         85.80886       64.55161       39.43395
H         86.89038       65.70258       40.27148
H         87.40247       63.41941       40.96595
H         88.79898       64.09986       40.06299
N         86.55399       67.19512       36.44261
C         85.71678       68.25211       35.91253
H         84.88348       68.51824       36.59652
H         86.33391       69.15865       35.74255
H         85.28246       67.92420       34.94518
H         87.34610       66.87998       35.86226
Ca        90.90385       69.33264       46.94001
O         88.32363       70.60777       45.68360
H         87.73974       69.92179       45.27389
H         87.99891       70.68062       46.61581
O         89.42095       68.36799       49.35990
H         89.73276       67.43790       49.22656
H         88.44041       68.28915       49.46943
O         92.57339       67.29282       48.22157
H         93.47850       66.91686       48.35823
H         92.35495       67.74317       49.07593
O         89.83190       66.51907       46.42512
H         88.95981       66.08016       46.58779
H         90.30276       65.91525       45.79745
O         91.01349       68.08614       44.11686
H         90.95990       67.36646       43.43983
H         90.40631       68.79254       43.78328

Ca 1.0



