%chk=apoCaM-CA-Ng.loop1.water3.frame717.chk
%nprocshared=20
%mem=10GB
%nosave
#b3lyp/svp scf=(tight,noincore,xqc) Test 
#IOP(5/87=12) Density=Current Pop=(MK,readradii) iop(6/33=2) iop(6/42=6)

apoCaM-CA-Ng.loop1.water3.frame717 

   0  1 
C         64.03241      119.50091        8.41646
C         65.23764      120.03332        7.69783
O         65.09969      120.98913        6.94839
H         63.27367      119.17287        7.67608
H         64.29195      118.63575        9.06285
H         63.60004      120.29927        9.05503
N         66.45987      119.46181        7.88567
C         67.67908      119.93267        7.24175
C         68.20978      118.92094        6.17321
O         67.97369      117.55365        6.40657
C         68.64907      120.59124        8.28926
C         69.17014      119.97664        9.58967
O         69.03266      118.69090        9.96431
O         69.75415      120.72321       10.35956
H         66.52434      118.66794        8.53490
H         67.44658      120.80009        6.58566
H         68.06877      121.47011        8.65073
H         69.52729      121.00170        7.74766
N         69.58756      119.20204        5.74812
C         70.11274      118.32186        4.68386
C         71.52393      117.97013        5.07046
O         72.33447      118.86907        5.25420
C         70.06713      118.97753        3.27881
C         70.58368      118.00758        2.19161
C         70.52696      118.62404        0.78427
C         71.06979      117.68821       -0.31648
N         70.24725      116.48807       -0.49891
H         69.69813      120.21010        5.48619
H         69.52018      117.38425        4.61760
H         70.67905      119.90693        3.26928
H         69.01467      119.24728        3.04474
H         69.96426      117.08749        2.22357
H         71.63945      117.73852        2.41092
H         71.15337      119.54258        0.78313
H         69.48315      118.91184        0.53562
H         72.12008      117.40194       -0.08977
H         71.08225      118.25129       -1.27558
H         69.26725      116.75823       -0.74189
H         70.64154      115.92211       -1.28490
H         70.24238      115.89117        0.35649
N         71.88946      116.66625        5.21096
C         73.22788      116.27837        5.63664
C         73.51594      114.79714        5.37755
O         72.58548      114.02504        5.19234
C         73.46194      116.66389        7.12604
C         72.37863      116.15882        8.04400
O         71.23340      116.56208        7.92140
O         72.67326      115.30130        9.03846
H         71.19433      115.93981        4.98535
H         73.92607      116.82628        4.96936
H         73.49401      117.76818        7.23033
H         74.43585      116.27453        7.48336
N         74.79404      114.32314        5.23549
C         75.99562      115.13508        5.37648
C         76.63534      115.42047        4.04224
O         75.95439      115.90918        3.15294
H         74.92064      113.33394        4.97032
H         76.69366      114.65048        6.09182
H         75.78236      116.12930        5.79526
N         77.97582      115.26157        3.87355
C         78.67862      115.68368        2.66566
C         78.36177      114.77734        1.49526
O         78.49743      113.56745        1.62281
C         80.19754      115.69983        2.91293
C         80.93795      116.24327        1.71917
O         81.76935      115.55791        1.14677
O         80.68134      117.48906        1.27349
H         78.52842      114.91906        4.67480
H         78.39250      116.73590        2.43617
H         80.55415      114.67517        3.15642
H         80.41560      116.36226        3.77869
N         78.00397      115.30839        0.29059
C         77.76518      114.48760       -0.88337
C         76.49062      113.68391       -0.79563
O         76.24349      112.90784       -1.70780
H         77.96055      116.33274        0.18181
H         78.63641      113.81284       -1.03559
H         77.67747      115.13791       -1.78015
N         75.61610      113.83354        0.24168
C         74.37216      113.09101        0.34775
C         74.35025      112.25920        1.60782
O         75.23674      112.36006        2.44514
C         73.15256      114.04852        0.31592
C         73.14406      115.04211        1.48489
O         73.13507      114.76196       -0.89204
H         75.82264      114.50530        0.98888
H         74.27421      112.38291       -0.50449
H         72.21124      113.45752        0.40503
H         72.74817      114.15532       -1.57693
H         73.17776      114.51294        2.45875
H         73.99491      115.74834        1.41733
H         72.21333      115.63226        1.46855
N         73.32505      111.38786        1.77866
C         73.16474      110.51568        2.93247
C         74.40751      109.64680        3.03848
O         75.01819      109.61627        4.09751
C         71.83757      109.70476        2.77708
C         70.61949      110.68326        2.74233
C         71.66517      108.68689        3.91932
C         69.31097      110.02599        2.30463
H         72.64569      111.31611        1.00775
H         73.07356      111.12554        3.86060
H         71.88794      109.14840        1.81443
H         70.78109      111.50115        2.01312
H         70.49069      111.16526        3.73626
H         71.60901      109.20789        4.89917
H         70.74415      108.08561        3.78197
H         72.51301      107.97209        3.94138
H         68.98639      109.23539        3.00721
H         68.51222      110.79782        2.26315
H         69.42857      109.59587        1.28655
N         74.86142      108.95803        1.95256
C         76.10490      108.18100        1.93679
C         76.09226      107.15484        0.80009
O         75.11185      107.06714        0.07172
C         77.36973      109.10261        1.91272
C         77.45540      109.98620        0.66730
O         77.41077      109.93226        3.04434
H         74.29415      109.01369        1.09323
H         76.14328      107.56238        2.86050
H         78.29054      108.47631        1.90752
H         77.81836      109.40429        3.78077
H         77.49346      109.36623       -0.25186
H         76.58905      110.67564        0.61169
H         78.38475      110.59633        0.71261
N         77.13324      106.28773        0.64172
C         77.11028      105.15960       -0.29046
C         77.20483      103.82357        0.45312
O         76.89763      102.80488       -0.14774
C         78.25046      105.31897       -1.32582
C         78.27771      104.21413       -2.38831
O         79.49285      105.34198       -0.66561
H         77.96576      106.41449        1.23271
H         76.14157      105.14918       -0.83738
H         78.07021      106.28190       -1.86324
H         79.92792      106.21016       -0.87137
H         77.30393      104.16052       -2.91894
H         79.07700      104.42706       -3.12848
H         78.50535      103.22622       -1.93705
N         77.62578      103.74563        1.75058
C         77.80145      102.49763        2.48749
C         78.23964      102.83648        3.90111
O         79.22040      103.55188        4.06473
C         78.85977      101.58376        1.82063
C         79.01683      100.25992        2.59033
C         80.05207       99.34140        1.93625
C         80.21396       98.04954        2.74988
N         81.22476       97.17735        2.15480
H         77.85823      104.61042        2.25114
H         76.83277      101.95133        2.51420
H         79.83722      102.11204        1.77241
H         78.55381      101.33414        0.78437
H         78.03462       99.73809        2.62790
H         79.34632      100.47152        3.63023
H         81.02996       99.86832        1.89089
H         79.72984       99.09172        0.90129
H         79.24095       97.51075        2.79363
H         80.52021       98.30279        3.78979
H         80.94294       96.90952        1.18406
H         82.15015       97.66456        2.13360
H         81.31258       96.31171        2.73474
N         77.57313      102.33464        4.97429
C         77.93992      102.68617        6.33692
C         77.51813      104.12136        6.64170
O         78.40084      104.90922        6.95028
C         77.41521      101.65310        7.35409
C         78.09036      100.28623        7.14046
C         77.63823       99.29054        8.16686
O         78.53232       98.73932        9.00996
O         76.46322       98.96770        8.23678
H         76.80481      101.66532        4.81469
H         79.04963      102.63187        6.43733
H         76.32129      101.52631        7.28288
H         77.66921      102.00632        8.37795
H         79.19338      100.40711        7.22281
H         77.85911       99.88977        6.12856
N         76.23592      104.59083        6.56175
C         75.07417      103.81345        6.18471
H         74.17862      104.47032        6.16407
H         75.19853      103.38424        5.17079
H         74.86685      103.02515        6.92916
H         76.07490      105.58960        6.76663
Ca        68.43053      117.16279        8.53233
O         70.34394      116.05408       11.46118
H         70.67194      115.32729       12.04847
H         70.77804      116.87197       11.81139
O         69.16592      114.74364        6.64315
H         68.22838      114.67442        6.33254
H         69.53844      113.83494        6.52016
O         69.12890      113.72721        9.71941
H         68.92844      113.69429       10.68859
H         69.96696      113.20891        9.62172

Ca 1.0



