%chk=apoCaM-CA-Ng.loop2.water4.frame1158.chk
%nprocshared=20
%mem=10GB
%nosave
#b3lyp/svp scf=(tight,noincore,xqc) Test 
#IOP(5/87=12) Density=Current Pop=(MK,readradii) iop(6/33=2) iop(6/42=6)

apoCaM-CA-Ng.loop2.water4.frame1158 

   -2  1 
C        114.35633       60.63538       93.02090
C        114.11092       60.87503       94.48343
O        113.32716       60.14027       95.06700
H        115.42950       60.40499       92.85458
H        113.75572       59.77181       92.66227
H        114.06484       61.53167       92.43533
N        114.73145       61.86723       95.18319
C        115.68404       62.82409       94.62615
C        115.16326       64.24100       94.80015
O        114.79985       64.60468       95.90152
C        117.09536       62.63181       95.23232
C        117.26002       62.75222       96.72786
O        116.22211       62.98665       97.54636
O        118.37171       62.61522       97.21193
H        114.50616       61.94323       96.18558
H        115.83012       62.65262       93.54048
H        117.77115       63.37477       94.75440
H        117.44968       61.61785       94.94604
N        115.10839       65.09242       93.73483
C        114.61135       66.46880       93.74419
C        115.38856       67.39829       94.67416
O        116.18277       68.17763       94.16560
C        113.09819       66.52953       93.98150
H        115.45316       64.74485       92.82676
H        114.76818       66.85676       92.71044
H        112.57641       65.91923       93.21383
H        112.81882       66.14022       94.98091
H        112.74304       67.57898       93.89180
N        115.16410       67.43619       96.02422
C        115.84711       68.35926       96.93082
C        116.58983       67.62594       98.03955
O        116.46868       66.41496       98.16382
C        114.83330       69.38034       97.50675
C        113.71556       68.80459       98.34727
O        113.62208       67.48585       98.59652
O        112.87804       69.55536       98.82022
H        114.44267       66.82819       96.42442
H        116.60992       68.94030       96.36885
H        114.37261       69.92602       96.65502
H        115.37639       70.12318       98.12889
N        117.41058       68.32361       98.87862
C        118.15457       67.71710       99.97369
C        117.29979       67.37115      101.18219
O        117.85513       66.88168      102.15501
H        117.55489       69.33001       98.70600
H        118.90632       68.45238      100.33407
H        118.70659       66.82620       99.60262
N        115.96075       67.62310      101.21433
C        115.09495       67.37530      102.36419
C        114.05446       66.33300      101.99478
O        114.10818       65.81076      100.89531
C        114.40058       68.70514      102.74080
C        115.38345       69.78324      103.11717
N        116.17269       69.65047      104.20811
O        115.45397       70.79712      102.43870
H        115.50699       68.03213      100.38847
H        115.66655       66.99309      103.23802
H        113.71040       68.57027      103.59840
H        113.79644       69.04606      101.86954
H        116.11481       68.81104      104.80246
H        116.83421       70.39706      104.46784
N        113.04305       66.01039      102.84727
C        111.95415       65.11352      102.48305
C        110.67493       65.91624      102.29688
O        110.73147       67.13354      102.41112
H        112.98929       66.47214      103.76724
H        111.85696       64.35023      103.27934
H        112.16453       64.57758      101.53526
N        109.46421       65.35544      102.00236
C        109.18989       63.92590      101.90397
C        108.07321       63.69431      100.88231
O        107.01858       64.29414      101.02211
C        108.74943       63.39766      103.29159
C        108.57478       61.87559      103.28302
O        109.71842       63.72623      104.25316
H        108.65946       65.99938      101.94074
H        110.10952       63.37756      101.60299
H        107.78183       63.88631      103.55806
H        109.24929       63.83903      105.12058
H        108.26474       61.52973      104.29131
H        107.80020       61.56582      102.55206
H        109.53681       61.38277      103.02166
N        108.22231       62.81620       99.85037
C        107.17430       62.54730       98.85189
C        105.92249       61.98833       99.54996
O        106.06481       60.93971      100.16320
C        107.70426       61.51456       97.79584
C        108.89193       62.11438       96.99377
C        106.58753       61.05797       96.83286
C        109.62671       61.09664       96.11774
H        109.11623       62.30664       99.79289
H        106.96093       63.48466       98.31315
H        108.06033       60.61723       98.35043
H        109.64713       62.52965       97.68542
H        108.53332       62.94890       96.36129
H        106.95154       60.28815       96.12478
H        105.74809       60.58622       97.38328
H        106.19578       61.91963       96.26087
H        110.46828       61.59934       95.59667
H        110.04037       60.28204       96.74969
H        108.97107       60.66456       95.33795
N        104.66771       62.55821       99.53758
C        104.25032       63.82351       98.91934
C        103.09325       63.65062       97.93465
O        102.55241       62.55733       97.81625
C        103.82279       64.81808      100.03417
C        102.61522       64.41821      100.85861
O        102.20920       65.22551      101.85636
O        101.99253       63.39150      100.63767
H        103.94098       62.04320      100.05785
H        105.08065       64.28572       98.36542
H        103.60174       65.80762       99.58268
H        104.67119       64.95734      100.73038
N        102.64294       64.72254       97.21287
C        101.44029       64.69746       96.37784
C        101.31454       65.99346       95.56636
O        101.39249       67.05579       96.17642
C        100.18249       64.59627       97.28038
C         98.92321       64.46994       96.45234
C         98.03385       65.55199       96.32112
C         98.63981       63.26576       95.78598
C         96.89129       65.43236       95.52219
C         97.49159       63.14760       94.99707
C         96.62038       64.23122       94.86143
H        103.17212       65.60638       97.28492
H        101.48712       63.81773       95.70615
H        100.13972       65.51446       97.90905
H        100.23044       63.73506       97.97882
H         98.23376       66.49355       96.81716
H         99.31099       62.42101       95.87649
H         96.21718       66.27217       95.41099
H         97.28053       62.21715       94.48626
H         95.73625       64.14016       94.24339
N        101.03350       66.02573       94.22469
C        100.80133       64.86886       93.37581
C        102.09338       64.14254       93.06330
O        102.13789       62.93645       93.27196
C        100.05288       65.45878       92.17124
C        100.61317       66.85695       92.04301
C        100.78270       67.26647       93.50835
H        100.09447       64.14764       93.82697
H        100.04720       64.83503       91.25205
H         98.99267       65.60065       92.48823
H        101.59561       66.78106       91.54849
H        100.01028       67.56353       91.43426
H        101.61202       68.00138       93.60238
H         99.84094       67.70302       93.90829
N        103.19211       64.79571       92.59372
C        104.45362       64.13770       92.30707
C        104.77704       64.34190       90.83233
O        105.03889       65.47984       90.46551
C        105.55187       64.74942       93.20135
C        105.23681       64.55462       94.69310
C        106.24106       65.25758       95.55801
O        105.83628       66.21084       96.41912
O        107.42558       64.97888       95.48278
H        103.16690       65.81292       92.46240
H        104.40222       63.06855       92.56497
H        105.62478       65.84050       92.99272
H        106.53251       64.27937       92.96714
H        105.22427       63.47137       94.92656
H        104.23484       64.97011       94.92773
N        104.76792       63.35162       89.88867
C        104.38211       61.96479       90.07733
H        103.53534       61.73587       89.39575
H        105.23398       61.30516       89.81433
H        104.04170       61.70909       91.09169
H        105.02451       63.61191       88.92355
Ca       114.11377       64.48754       98.58288
O        116.76664       64.05556      100.42136
H        116.66048       64.17527      101.39841
H        117.66292       63.64838      100.31560
O        113.83687       61.85128      100.14465
H        113.72025       62.26070      101.03867
H        114.81782       61.77640      100.03162
O        111.23642       65.22457       99.15344
H        111.41181       66.15405       99.44555
H        110.72723       65.31898       98.31064
O        112.13866       62.86708       97.47779
H        112.10630       63.29968       96.58762
H        112.31650       61.91185       97.29239

Ca 1.0



