%chk=apoCaM-CA-Ng.loop1.water4.frame1002.chk
%nprocshared=20
%mem=10GB
%nosave
#b3lyp/svp scf=(tight,noincore,xqc) Test 
#IOP(5/87=12) Density=Current Pop=(MK,readradii) iop(6/33=2) iop(6/42=6)

apoCaM-CA-Ng.loop1.water4.frame1002 

   0  1 
C         29.74417       23.70229       11.76258
C         28.79644       23.75811       12.92299
O         29.04357       23.10606       13.92823
H         30.60331       23.03379       11.98627
H         29.21306       23.31196       10.86923
H         30.12974       24.71981       11.54423
N         27.67500       24.53015       12.85102
C         26.70654       24.61485       13.93846
C         26.10051       23.23809       14.16241
O         25.60261       22.64405       13.21571
C         25.62393       25.66205       13.61899
C         24.76085       25.99023       14.80895
O         23.86024       26.80499       14.69162
O         25.00098       25.44092       16.01671
H         27.51512       25.07892       11.99165
H         27.24853       24.96907       14.84515
H         24.99763       25.30802       12.77185
H         26.11896       26.61111       13.31823
N         26.19421       22.63985       15.37882
C         25.91637       21.22428       15.58797
C         24.48377       20.76998       15.23942
O         24.40542       19.89698       14.38560
C         26.41146       20.75221       16.98013
C         27.94643       20.92850       17.11912
C         28.53537       20.39320       18.43684
C         28.42866       18.86806       18.63365
N         29.12422       18.11781       17.58391
H         26.59146       23.18800       16.15576
H         26.57226       20.66684       14.87823
H         26.17164       19.67237       17.07491
H         25.91552       21.31343       17.79269
H         28.19886       22.00732       17.07283
H         28.46610       20.44156       16.26783
H         28.04205       20.90583       19.29064
H         29.61499       20.66189       18.46208
H         27.36623       18.55049       18.68249
H         28.89457       18.62105       19.61372
H         28.64948       18.24379       16.66206
H         30.12258       18.42328       17.51710
H         29.10146       17.09972       17.82082
N         23.30522       21.19514       15.79809
C         23.11321       22.25192       16.77455
C         21.79657       22.99898       16.47970
O         20.75139       22.36303       16.44263
C         23.01503       21.63861       18.17728
C         22.98115       22.74184       19.17701
O         23.89374       23.54640       19.21414
O         21.89044       22.97206       19.90984
H         22.45213       20.69805       15.49419
H         23.98471       22.93950       16.74584
H         23.88499       20.99816       18.40475
H         22.11297       20.99836       18.25721
N         21.77080       24.34257       16.25859
C         20.56798       25.08222       15.88551
C         19.53417       25.31695       16.98282
O         18.54162       25.95883       16.67152
H         22.65694       24.85767       16.27074
H         20.08841       24.57815       15.01791
H         20.87939       26.09414       15.54654
N         19.68782       24.88775       18.27191
C         18.73836       25.16871       19.35707
C         18.64277       26.67981       19.58701
O         17.59139       27.24737       19.31957
C         17.32170       24.56243       19.09249
C         17.27883       23.06939       18.88458
O         16.82232       22.61807       17.84707
O         17.74982       22.21603       19.81203
H         20.53539       24.36694       18.51163
H         19.10439       24.70524       20.29735
H         16.85553       25.04815       18.20896
H         16.67675       24.79254       19.96900
N         19.67212       27.44416       20.05953
C         20.96635       26.97768       20.53486
C         20.84213       26.22447       21.84305
O         20.15729       26.70685       22.73377
H         19.51355       28.46368       20.11317
H         21.57606       27.87863       20.76537
H         21.50685       26.40699       19.75042
N         21.53323       25.06605       22.05149
C         21.44209       24.26574       23.27502
C         22.50609       23.15896       23.27215
O         22.18114       22.00150       23.04316
C         19.99604       23.71852       23.47566
C         19.84339       22.96041       24.80374
O         19.63401       22.88946       22.40258
H         22.18112       24.76757       21.31431
H         21.66264       24.91777       24.14935
H         19.30003       24.58497       23.52066
H         18.64186       22.83852       22.40069
H         20.12187       23.61843       25.65399
H         18.78769       22.64349       24.93706
H         20.47705       22.05134       24.83571
N         23.80492       23.46335       23.57349
C         24.91276       22.50526       23.68474
C         24.68286       21.48540       24.79507
O         23.80581       20.64575       24.68196
C         25.23751       21.82115       22.31762
C         25.74400       22.85134       21.28248
C         26.23985       20.65529       22.43220
C         27.12336       23.46162       21.54757
H         24.02924       24.45179       23.76894
H         25.81275       23.07788       23.98070
H         24.30031       21.37618       21.92007
H         25.01780       23.68550       21.24019
H         25.79912       22.34706       20.29235
H         27.19884       20.98646       22.87762
H         25.82705       19.84348       23.06116
H         26.43285       20.21476       21.43025
H         27.36190       24.17221       20.72851
H         27.14758       24.02323       22.50118
H         27.91216       22.68232       21.55135
N         25.50656       21.49024       25.88897
C         25.52087       20.43158       26.89718
C         26.25100       20.88624       28.15613
O         27.32720       21.45489       28.06966
C         26.19971       19.14062       26.34935
C         27.65049       19.36040       25.89955
O         25.47783       18.61617       25.26803
H         26.19143       22.25288       25.98061
H         24.47799       20.17992       27.18850
H         26.23076       18.37525       27.16114
H         24.68257       18.15838       25.64601
H         28.29010       19.67568       26.74694
H         28.07184       18.41117       25.50873
H         27.70723       20.12829       25.10103
N         25.72467       20.59457       29.38101
C         26.40911       20.91375       30.63045
C         27.75652       20.21175       30.67603
O         27.77937       18.99293       30.59788
C         25.54915       20.45892       31.84134
C         26.21794       20.77687       33.18389
O         24.30174       21.10637       31.80573
H         24.82481       20.09593       29.42020
H         26.54224       22.01590       30.69580
H         25.41396       19.34938       31.79964
H         23.62802       20.44170       31.50432
H         26.38044       21.87051       33.28564
H         25.56963       20.43056       34.01651
H         27.19463       20.25670       33.27765
N         28.91187       20.92863       30.84821
C         30.24096       20.34099       31.02547
C         30.71837       19.63786       29.75816
O         30.05742       18.72372       29.28507
C         30.24709       19.45167       32.28867
C         31.63268       18.91206       32.66117
C         31.55263       18.16015       33.99845
C         32.90444       17.55913       34.39667
N         32.80862       16.88214       35.69059
H         28.84165       21.95465       30.91989
H         30.94659       21.17689       31.23477
H         29.55637       18.59148       32.17706
H         29.88208       20.08004       33.13248
H         32.35005       19.75590       32.76297
H         31.98988       18.22893       31.86047
H         30.80464       17.34059       33.92102
H         31.22189       18.86766       34.79150
H         33.66954       18.36416       34.46127
H         33.22363       16.82842       33.62072
H         32.55129       17.56934       36.43638
H         32.08991       16.12307       35.65051
H         33.73485       16.45908       35.92702
N         31.87629       20.02829       29.14571
C         32.32836       19.47185       27.87111
C         31.33017       19.78785       26.76057
O         30.80629       18.83724       26.19835
C         33.75515       19.96142       27.49917
C         34.89148       19.15809       28.15676
C         35.09210       17.81111       27.49926
O         34.22416       16.95446       27.53129
O         36.24704       17.55091       26.85559
H         32.44676       20.76148       29.59559
H         32.36120       18.36780       27.95769
H         33.86499       21.02306       27.79579
H         33.92266       19.90077       26.40061
H         34.72800       19.05189       29.25017
H         35.83371       19.72824       28.00397
N         30.98247       21.04583       26.35782
C         31.50842       22.27527       26.90738
H         32.59123       22.36244       26.70240
H         31.02225       23.14099       26.40984
H         31.29973       22.33899       27.99422
H         30.28391       21.13496       25.60325
Ca        19.93413       22.00777       19.53696
O         20.21857       19.26109       17.62094
H         19.48951       18.77405       18.07980
H         19.75830       19.81230       16.93950
O         19.57751       19.65273       22.90752
H         20.24644       19.45742       23.61084
H         18.71867       19.72645       23.39503
O         22.28091       19.44865       20.76330
H         23.10841       19.47597       20.22091
H         22.50877       18.86220       21.52756
O         17.45603       19.40372       20.63082
H         16.67113       19.84514       20.21928
H         17.76246       18.75735       19.94690

Ca 1.0



