%chk=apoCaM-CA-Ng.loop2.water4.frame1128.chk
%nprocshared=20
%mem=10GB
%nosave
#b3lyp/svp scf=(tight,noincore,xqc) Test 
#IOP(5/87=12) Density=Current Pop=(MK,readradii) iop(6/33=2) iop(6/42=6)

apoCaM-CA-Ng.loop2.water4.frame1128 

   -2  1 
C        106.31378       72.58025       63.13210
C        106.57126       73.63435       64.16949
O        106.03244       73.51980       65.26090
H        105.84142       73.03112       62.23605
H        107.27435       72.09714       62.85321
H        105.63664       71.79651       63.53431
N        107.40874       74.68715       63.95377
C        108.13320       74.94880       62.71194
C        107.83194       76.36409       62.21432
O        106.79991       76.90493       62.58821
C        109.62726       74.61318       62.93263
C        110.31756       75.44431       63.97572
O        110.49516       76.63682       63.79973
O        110.79238       74.86065       65.09207
H        107.57331       75.32666       64.74408
H        107.81193       74.26262       61.90269
H        110.19383       74.68176       61.98187
H        109.67448       73.54819       63.24956
N        108.68462       77.03186       61.37717
C        108.45595       78.38158       60.86588
C        108.13834       79.35302       61.99718
O        107.10620       80.00802       61.93124
C        107.33882       78.35681       59.80346
H        109.56524       76.58295       61.09404
H        109.38250       78.71962       60.35104
H        107.59806       77.64985       58.98747
H        106.36974       78.04128       60.24637
H        107.20809       79.36648       59.35645
N        108.95753       79.47717       63.08836
C        108.57406       80.28955       64.25070
C        109.68710       80.47323       65.29335
O        110.77098       79.92399       65.15943
C        107.26579       79.71635       64.89152
C        107.28469       78.26468       65.32254
O        108.41765       77.54754       65.39584
O        106.24011       77.73967       65.67104
H        109.84593       78.95759       63.09415
H        108.36013       81.31871       63.88541
H        106.45184       79.78948       64.14767
H        106.93519       80.33957       65.74601
N        109.46064       81.30657       66.35487
C        110.39895       81.63802       67.42791
C        110.67743       80.48106       68.42232
O        109.49895       79.80073       68.69720
H        108.55353       81.79520       66.38852
H        109.92156       82.45240       68.01591
H        111.34609       82.04494       67.01402
N        111.27052       81.00249       69.66971
C        111.54035       79.97872       70.70741
C        110.30366       79.55105       71.49531
O        109.25906       80.18202       71.40315
C        112.52955       80.57285       71.73308
C        113.88325       80.84162       71.14115
N        114.66387       79.81368       70.73753
O        114.29379       81.98923       71.05543
H        110.68860       81.77660       70.06923
H        111.97269       79.07646       70.22741
H        112.67956       79.88783       72.59486
H        112.09190       81.51842       72.12939
H        114.33918       78.84030       70.83520
H        115.60272       79.98751       70.35134
N        110.38202       78.46904       72.32869
C        109.29948       78.06575       73.21522
C        109.20121       79.00399       74.40677
O        110.03963       79.88704       74.52718
H        111.24719       77.90724       72.33844
H        109.51069       77.05127       73.61772
H        108.35057       78.02384       72.63745
N        108.21480       78.91928       75.34726
C        107.09922       77.98264       75.32521
C        105.84940       78.76140       74.97858
O        105.55866       79.76316       75.61754
C        106.93143       77.27174       76.68866
C        105.73570       76.29855       76.66018
O        108.10318       76.55992       76.98798
H        108.21583       79.62626       76.10003
H        107.25911       77.19108       74.56240
H        106.75372       78.04436       77.47279
H        108.03623       76.28953       77.94180
H        104.78659       76.83500       76.44506
H        105.88590       75.51949       75.88204
H        105.61972       75.80085       77.64533
N        105.05374       78.32283       73.96951
C        103.85119       79.00257       73.51136
C        102.63333       78.12507       73.80404
O        102.68292       76.94686       73.48307
C        103.98438       79.36061       71.99752
C        104.25858       78.12879       71.08680
C        105.07607       80.43567       71.82184
C        104.19571       78.43978       69.59191
H        105.30928       77.43885       73.50647
H        103.72605       79.96411       74.04056
H        103.02098       79.81348       71.69170
H        103.49073       77.35212       71.26441
H        105.25704       77.69497       71.30767
H        104.85007       81.31859       72.45752
H        106.07403       80.03963       72.10813
H        105.12170       80.80183       70.77753
H        104.36459       77.50283       69.01958
H        103.19454       78.83904       69.32701
H        104.97745       79.16280       69.28769
N        101.48319       78.58233       74.39343
C        101.19806       79.97722       74.73971
C         99.70048       80.29449       74.67008
O         98.89047       79.38710       74.52883
C        101.79202       80.32934       76.12731
C        101.26287       79.49350       77.27004
O        101.72849       79.71269       78.51425
O        100.43190       78.61674       77.09132
H        100.72508       77.88970       74.49670
H        101.64169       80.62759       73.95704
H        101.59293       81.39804       76.35442
H        102.89093       80.19178       76.10678
N         99.26849       81.58931       74.71429
C         97.86374       81.98217       74.61204
C         97.65168       82.86092       73.37946
O         98.39930       83.82421       73.24580
C         97.44370       82.79439       75.85468
C         95.95221       83.04038       75.80923
C         95.43669       84.30107       75.46303
C         95.06287       81.98142       76.06697
C         94.05405       84.49091       75.36065
C         93.68271       82.17938       75.97590
C         93.17855       83.43160       75.61713
H         99.97304       82.33946       74.80284
H         97.21918       81.08723       74.58320
H         98.00841       83.75379       75.85918
H         97.69107       82.26138       76.79790
H         96.10211       85.12641       75.24340
H         95.44079       81.00140       76.33117
H         93.66025       85.45723       75.07364
H         93.00541       81.35837       76.17275
H         92.10956       83.57915       75.53393
N         96.63259       82.68747       72.47552
C         95.58586       81.66839       72.50712
C         96.12484       80.26172       72.43972
O         95.75491       79.43376       73.26231
C         94.74018       81.97148       71.26030
C         94.87803       83.47157       71.15505
C         96.36838       83.64789       71.42103
H         94.96071       81.82272       73.40857
H         95.22289       81.55451       70.34765
H         93.69870       81.58699       71.31060
H         94.52228       83.91574       70.20135
H         94.31040       83.92788       71.99949
H         96.97920       83.37784       70.53107
H         96.55769       84.70211       71.72094
N         97.04085       79.93576       71.48982
C         97.60896       78.60812       71.36048
C         96.54504       77.69172       70.76747
O         96.08486       78.01028       69.67933
C         98.87245       78.58722       70.45625
C        100.09968       79.32738       71.04402
C        100.15283       80.82934       70.88642
O        101.16208       81.51380       71.45556
O         99.36058       81.43144       70.18356
H         97.33578       80.67192       70.84369
H         97.96193       78.28789       72.35299
H         98.66709       78.92014       69.41630
H         99.17145       77.51594       70.41056
H        101.00950       78.94669       70.53595
H        100.18832       79.05621       72.11341
N         96.06745       76.55434       71.35651
C         96.48725       75.97755       72.61900
H         97.28595       76.52726       73.13750
H         95.61365       75.91905       73.30082
H         96.86053       74.94824       72.43506
H         95.33368       76.03210       70.85235
Ca       109.64447       78.24189       67.09492
O        113.59469       75.90047       66.04983
H        113.78422       75.97690       65.08109
H        114.45806       76.10636       66.48892
O        113.13676       78.03806       68.13646
H        113.17826       77.36596       68.86239
H        113.98663       78.53989       68.21424
O        109.87917       75.35436       68.03663
H        109.05661       75.39253       67.48621
H        109.59812       75.68535       68.92653
O        113.62067       79.14177       65.31328
H        114.15240       79.76771       65.86631
H        114.29477       78.60269       64.82872

Ca 1.0



