%chk=apoCaM-CA-Ng.loop3.water1.frame560.chk
%nprocshared=20
%mem=10GB
%nosave
#b3lyp/svp scf=(tight,noincore,xqc) Test 
#IOP(5/87=12) Density=Current Pop=(MK,readradii) iop(6/33=2) iop(6/42=6)

apoCaM-CA-Ng.loop3.water1.frame560 

   0  1 
C         46.40028        9.09040       80.58086
C         45.19687        8.22847       80.32873
O         44.17201        8.44220       80.96020
H         47.25215        8.79990       79.92952
H         46.14520       10.14941       80.36303
H         46.71557        8.99960       81.64007
N         45.23914        7.24926       79.38461
C         44.07924        6.44420       79.02633
C         43.64495        5.54638       80.16892
O         44.41049        4.67898       80.56884
C         44.40953        5.60963       77.77063
C         43.22453        4.91234       77.17589
O         43.38285        4.20105       76.19743
O         41.98841        5.07788       77.68779
H         46.11563        7.12135       78.85421
H         43.25265        7.13444       78.77696
H         45.19446        4.86253       78.02053
H         44.81070        6.28110       76.98335
N         42.41520        5.69968       80.74239
C         41.94018        4.82943       81.80975
C         41.70980        3.43021       81.25529
O         42.34480        2.49617       81.72333
C         40.65788        5.40515       82.45832
C         40.27914        4.65836       83.75455
C         39.08272        5.28581       84.49414
C         37.74762        5.08740       83.76312
N         36.64660        5.70889       84.49935
H         41.80940        6.47116       80.42112
H         42.71740        4.81489       82.60824
H         39.82605        5.39786       81.72849
H         40.86039        6.46340       82.73676
H         41.15212        4.72064       84.44090
H         40.07527        3.58484       83.55277
H         39.27679        6.36883       84.65808
H         38.99619        4.79838       85.48964
H         37.54885        3.99822       83.65156
H         37.79550        5.53794       82.75811
H         35.75120        5.53379       83.98811
H         36.57372        5.30082       85.45944
H         36.79882        6.74187       84.56480
N         40.81452        3.21994       80.24032
C         40.55028        1.89642       79.66884
C         41.75672        1.27078       78.96554
O         41.71070        0.08015       78.68786
C         39.33321        1.92763       78.70695
C         39.44469        2.92833       77.57466
O         40.48382        2.90487       76.72261
O         38.57159        3.76106       77.41925
H         40.28166        4.02891       79.88777
H         40.28282        1.22263       80.51361
H         38.42343        2.17368       79.29847
H         39.18475        0.91230       78.28026
N         42.85973        1.99904       78.63875
C         44.06077        1.46403       78.01494
C         43.93436        0.91055       76.59647
O         44.97443        0.56414       76.06147
H         42.88183        2.99291       78.88994
H         44.49123        0.67468       78.66865
H         44.80396        2.29005       77.96222
N         42.74521        0.75243       75.93182
C         42.65992        0.14956       74.59450
C         41.85372        1.01274       73.63228
O         41.23374        1.96585       74.04975
C         42.00444       -1.23657       74.72087
C         42.83062       -2.13920       75.60439
N         42.33544       -2.60981       76.77287
O         43.96504       -2.44000       75.26407
H         41.86610        0.98662       76.39600
H         43.67422        0.02910       74.15771
H         41.90482       -1.71868       73.72491
H         40.98334       -1.11127       75.14512
H         41.38604       -2.36059       77.08547
H         42.91008       -3.21769       77.37528
N         41.82239        0.71316       72.30097
C         41.06323        1.47096       71.31061
C         41.50334        2.91757       71.21810
O         42.69504        3.16040       71.08568
H         42.36637       -0.09410       71.96568
H         39.97544        1.40272       71.52612
H         41.24021        1.00395       70.31722
N         40.58508        3.93476       71.22551
C         40.96628        5.34222       71.09592
C         41.38282        5.94322       72.46759
O         42.14593        5.03824       73.19885
C         39.80564        6.18779       70.51450
C         39.54492        5.92993       69.04764
C         40.52423        6.26188       68.09241
C         38.31535        5.41051       68.61071
C         40.27706        6.08010       66.72855
C         38.07181        5.22517       67.24407
C         39.05174        5.56334       66.29848
O         38.82603        5.40368       64.97835
H         39.58294        3.69185       71.24758
H         41.83163        5.41212       70.40031
H         40.04274        7.27136       70.58685
H         38.89546        6.01470       71.12976
H         41.47421        6.68060       68.40081
H         37.54257        5.15557       69.32429
H         41.03601        6.35072       66.00438
H         37.11856        4.82700       66.92018
H         37.98874        5.06001       64.63550
N         42.05938        7.25670       72.27980
C         43.16776        7.69393       73.16197
C         42.70975        7.87442       74.59199
O         42.30142        6.90711       75.21456
C         44.45899        6.79681       73.10545
C         45.63113        7.38373       73.94555
C         44.91620        6.51466       71.66466
C         46.16987        8.73883       73.47575
H         42.35590        7.40593       71.28708
H         43.46851        8.68990       72.77473
H         44.25744        5.81336       73.56988
H         46.47438        6.65874       73.93302
H         45.31321        7.48910       75.00345
H         45.13010        7.45410       71.11586
H         45.82916        5.88104       71.67237
H         44.13836        5.95139       71.11112
H         45.39384        9.52711       73.52879
H         47.00453        9.04645       74.14019
H         46.56399        8.67516       72.44155
N         42.84117        9.08268       75.21282
C         42.62184        9.22654       76.64621
C         41.17516        9.00362       77.06232
O         40.93732        8.82485       78.24927
C         43.12745       10.58180       77.16361
O         44.50563       10.71435       76.92767
H         43.20918        9.88189       74.67617
H         43.24637        8.45445       77.12566
H         42.97006       10.64642       78.26166
H         42.55928       11.42220       76.70250
H         44.61444       11.13631       76.03643
N         40.15208        9.03323       76.16168
C         38.76384        8.80766       76.54482
C         38.54755        7.34615       76.89192
O         38.84308        6.51716       76.04263
C         37.82852        9.17316       75.38647
H         40.35859        9.26099       75.17777
H         38.51048        9.48588       77.37762
H         37.96203       10.24211       75.11726
H         38.03907        8.54942       74.49087
H         36.77047        9.01942       75.69058
N         38.01915        6.90235       78.06955
C         37.60119        7.71652       79.20152
C         36.46606        8.65539       78.81689
O         35.47081        8.15655       78.30909
C         37.09439        6.80177       80.32418
H         37.90223        5.88600       78.16655
H         38.49147        8.21913       79.60751
H         37.89519        6.08812       80.59774
H         36.81655        7.39746       81.22022
H         36.20854        6.21490       79.99628
N         36.46699       10.00361       79.04726
C         37.52938       10.77004       79.69223
C         37.75206       12.08542       78.96762
O         38.86452       12.32543       78.51636
C         37.29384       10.90138       81.21905
C         36.05469       11.66852       81.71108
C         34.75886       11.02711       81.30491
O         34.48754        9.75945       81.67047
O         33.93741       11.65670       80.65791
H         35.60435       10.50959       78.79729
H         38.49439       10.24164       79.62249
H         38.18536       11.40541       81.65284
H         37.26121        9.87623       81.65068
H         36.10178       12.72350       81.37326
H         36.08312       11.68264       82.82188
N         36.74148       12.98039       78.78969
C         36.93914       14.23243       78.09485
H         37.69165       14.84781       78.63174
H         37.28570       14.03960       77.05731
H         35.98244       14.79503       78.05182
H         35.79699       12.77138       79.13850
Ca        40.84824        4.34449       74.97755
O         38.09366        4.08362       73.65515
H         37.89954        3.30580       74.23617
H         37.73019        4.86002       74.15019

Ca 1.0



