%chk=apoCaM-CA-Ng.loop2.water4.frame565.chk
%nprocshared=20
%mem=10GB
%nosave
#b3lyp/svp scf=(tight,noincore,xqc) Test 
#IOP(5/87=12) Density=Current Pop=(MK,readradii) iop(6/33=2) iop(6/42=6)

apoCaM-CA-Ng.loop2.water4.frame565 

   -2  1 
C         50.78498       22.80125       80.15806
C         49.40322       23.04538       79.60044
O         48.88035       24.13895       79.75313
H         51.50647       23.54010       79.75232
H         50.76407       22.88415       81.26552
H         51.15636       21.78454       79.90190
N         48.74694       22.04378       78.95394
C         47.38185       22.12949       78.43257
C         47.18936       23.20768       77.36959
O         47.88282       23.18937       76.36893
C         46.99572       20.76154       77.82922
C         45.62024       20.77383       77.22009
O         45.47460       20.51896       76.03488
O         44.54828       21.08968       77.97050
H         49.23531       21.13744       78.87618
H         46.69014       22.33212       79.27983
H         47.02934       19.98985       78.62831
H         47.73857       20.48305       77.04726
N         46.13984       24.07957       77.48089
C         45.71339       25.03519       76.45002
C         46.61783       26.25912       76.39274
O         47.25638       26.53352       77.39891
C         44.28153       25.48455       76.78224
H         45.53187       23.96488       78.30461
H         45.69195       24.50873       75.48020
H         43.62328       24.59148       76.86391
H         44.26749       26.01060       77.76267
H         43.85600       26.15457       76.01212
N         46.71675       27.10735       75.31774
C         46.00590       27.01828       74.03886
C         46.22530       25.72601       73.27541
O         47.30066       25.14512       73.30997
C         46.32045       28.23169       73.12580
C         47.77753       28.44582       72.80023
O         48.10751       29.41048       72.12950
O         48.72719       27.61999       73.26970
H         47.33927       27.92136       75.44211
H         44.91965       27.09218       74.24634
H         45.96214       29.14566       73.64230
H         45.75501       28.13278       72.17101
N         45.16751       25.20781       72.59213
C         45.16255       23.95073       71.87881
C         44.52578       22.89354       72.74367
O         44.34276       23.12423       73.93006
H         44.26439       25.70361       72.62840
H         46.18274       23.59605       71.62553
H         44.60192       24.11633       70.93670
N         44.19275       21.66922       72.27250
C         44.14803       21.29134       70.86604
C         45.41724       20.57748       70.44330
O         45.45616       20.09492       69.31843
C         42.89916       20.39920       70.68363
C         41.65275       21.15409       71.09004
N         41.13801       22.12042       70.29512
O         41.11044       20.89492       72.15436
H         43.83425       20.98686       72.96099
H         44.01748       22.16952       70.20067
H         43.02059       19.51175       71.34420
H         42.77883       20.02797       69.64334
H         41.56323       22.33144       69.38092
H         40.29438       22.63927       70.58247
N         46.50761       20.48597       71.26839
C         47.67049       19.68441       70.93429
C         48.77972       20.46568       70.27449
O         49.92999       20.25922       70.63551
H         46.49156       20.91847       72.20174
H         47.37448       18.87109       70.24059
H         48.03995       19.17432       71.85122
N         48.51473       21.32596       69.24765
C         49.54557       21.95553       68.42264
C         50.57880       22.70032       69.24097
O         50.35269       23.03008       70.39641
C         48.92586       22.85326       67.32275
C         48.14029       22.02157       66.29092
O         48.08777       23.79561       67.93620
H         47.53167       21.50357       69.01304
H         50.10968       21.12787       67.93593
H         49.73426       23.38836       66.77608
H         47.57793       24.27272       67.23285
H         47.62678       22.69974       65.57714
H         48.83316       21.37978       65.70727
H         47.37046       21.38171       66.76806
N         51.82454       22.82308       68.70933
C         53.01214       23.12867       69.48307
C         53.56717       24.45290       69.01329
O         53.88081       24.61802       67.84307
C         53.99738       21.92311       69.35242
C         55.37555       22.15897       70.02458
C         53.33075       20.65241       69.92603
C         56.33722       20.97925       69.83834
H         51.96974       22.55833       67.72302
H         52.75410       23.21700       70.55326
H         54.17889       21.76593       68.26728
H         55.27186       22.33085       71.10883
H         55.84386       23.05767       69.57273
H         52.32662       20.48818       69.48913
H         53.91884       19.74842       69.67444
H         53.22820       20.72768       71.03110
H         56.41020       20.70922       68.76432
H         57.34721       21.24732       70.21154
H         55.99968       20.09198       70.41589
N         53.69180       25.45289       69.92227
C         54.12787       26.80317       69.66315
C         55.54297       27.00623       70.20603
O         56.25919       27.85692       69.69510
C         53.12082       27.75311       70.36727
C         51.67626       27.52701       69.91693
O         51.42327       27.67839       68.73810
O         50.63033       27.21487       70.72629
H         53.42308       25.26602       70.88460
H         54.15278       26.98402       68.56450
H         53.39974       28.79741       70.10885
H         53.22011       27.64390       71.47121
N         55.99834       26.26479       71.26138
C         57.32630       26.35354       71.83777
C         57.31337       25.78490       73.26482
O         58.03017       24.83197       73.53772
C         58.33522       25.67094       70.87478
C         59.80688       25.89861       71.15414
C         60.29561       27.15930       71.55141
C         60.72867       24.86377       70.90553
C         61.66610       27.37536       71.70143
C         62.10332       25.09256       71.03769
C         62.57071       26.34774       71.43442
H         55.36242       25.61758       71.70916
H         57.58114       27.42292       71.93390
H         58.17900       26.11118       69.86991
H         58.10931       24.58387       70.77182
H         59.63452       27.99013       71.74004
H         60.39011       23.89040       70.57177
H         62.02511       28.34963       72.00683
H         62.80826       24.30146       70.81633
H         63.63354       26.52959       71.52592
N         56.54047       26.36038       74.25193
C         56.60392       25.99947       75.67229
C         56.23346       24.56085       76.03002
O         56.45295       24.15346       77.16245
C         55.56980       26.92230       76.33516
C         55.53183       28.12299       75.41677
C         55.68267       27.51046       74.03131
H         57.64305       26.22497       75.99361
H         54.55958       26.45555       76.26980
H         55.78912       27.15460       77.39986
H         54.64528       28.78534       75.53458
H         56.45140       28.71110       75.61835
H         54.72552       27.16124       73.59314
H         56.13049       28.28744       73.37759
N         55.57746       23.77753       75.13554
C         55.14587       22.40576       75.38354
C         56.39253       21.57363       75.45716
O         56.66661       20.95211       76.47375
C         54.23176       21.80081       74.26486
C         52.93729       22.57389       73.98015
C         53.15734       23.72961       73.09368
O         52.13132       24.50198       72.78519
O         54.20487       23.87838       72.50568
H         55.39728       24.20994       74.24803
H         54.55294       22.37377       76.32674
H         53.92546       20.79026       74.60113
H         54.76867       21.65281       73.30431
H         52.43353       22.88128       74.91933
H         52.24206       21.94164       73.38671
N         57.21336       21.55313       74.37028
C         58.46760       20.85166       74.33226
H         59.17841       21.33058       75.03707
H         58.31709       19.78428       74.58947
H         58.88492       20.92121       73.30435
H         56.94266       22.07778       73.52408
Ca        50.40987       25.71300       72.34308
O         47.92682       25.35889       70.42988
H         47.33553       25.90748       69.85641
H         47.72575       24.42508       70.17540
O         50.03958       25.14100       75.07218
H         50.14698       25.53135       75.97369
H         49.28742       24.51493       75.15939
O         49.19304       22.72760       73.01612
H         48.38214       22.40626       73.48281
H         49.59703       21.90914       72.63586
O         51.88252       27.32142       74.27527
H         51.90614       26.83464       75.13516
H         52.48951       26.80283       73.69347

Ca 1.0



