%chk=apoCaM-CA-Ng.loop4.water4.frame505.chk
%nprocshared=20
%mem=10GB
%nosave
#b3lyp/svp scf=(tight,noincore,xqc) Test 
#IOP(5/87=12) Density=Current Pop=(MK,readradii) iop(6/33=2) iop(6/42=6)

apoCaM-CA-Ng.loop4.water4.frame505 

   -3  1 
C         69.93279       27.29565       50.82870
C         69.28060       26.46684       51.89479
O         69.67674       26.57472       53.04612
H         71.00802       27.05479       50.76532
H         69.47210       27.11782       49.83490
H         69.82225       28.37077       51.08269
N         68.24030       25.63594       51.58526
C         67.48871       24.83646       52.55372
C         66.69965       25.69391       53.54201
O         66.05417       25.12338       54.41147
C         68.39449       23.84212       53.32117
C         69.21797       22.97911       52.40856
O         69.06083       21.76877       52.39652
O         70.16853       23.53382       51.63343
H         67.94788       25.56446       50.59864
H         66.74308       24.23192       51.98892
H         67.74268       23.18938       53.94467
H         69.08216       24.37469       54.00922
N         66.69796       27.06020       53.48463
C         66.02426       27.89408       54.47597
C         64.51790       27.64663       54.48123
O         64.01077       27.13018       53.49452
C         66.33228       29.41539       54.24764
C         65.85489       29.90744       52.84576
C         67.83060       29.69211       54.47859
C         66.03069       31.40915       52.61542
H         67.21941       27.52691       52.73980
H         66.43696       27.57808       55.45666
H         65.78465       29.99689       55.01568
H         64.77245       29.68735       52.73302
H         66.39380       29.38520       52.02909
H         68.12521       29.34876       55.49304
H         68.46491       29.17484       53.72986
H         68.04901       30.77778       54.43395
H         67.10056       31.69977       52.63073
H         65.63219       31.67324       51.61212
H         65.47380       31.98643       53.38210
N         63.70423       27.97259       55.53166
C         64.13922       28.50108       56.82430
C         63.75065       27.54389       57.94231
O         64.62088       27.12885       58.69426
C         63.58747       29.92248       57.08705
C         62.09235       30.03023       57.20540
O         61.54094       30.43284       58.36688
O         61.37248       29.77493       56.25398
H         62.69780       27.78886       55.40793
H         65.23821       28.62152       56.86095
H         63.92671       30.60927       56.28482
H         64.03551       30.28113       58.03918
N         62.45548       27.14533       58.10030
C         61.97103       26.32627       59.19310
C         61.67207       27.19269       60.39280
O         60.50414       27.38037       60.70490
H         61.75031       27.43739       57.41108
H         62.65278       25.47763       59.42113
H         61.00658       25.87757       58.86558
N         62.67815       27.73117       61.13403
C         62.45200       28.56740       62.30784
C         63.32855       29.81910       62.31449
O         63.32347       30.51599       63.32060
C         62.61331       27.71846       63.59039
C         63.95866       27.08528       63.82594
O         64.13576       26.32167       64.92011
O         64.88530       27.23712       63.04909
H         63.64545       27.47084       60.90277
H         61.39645       28.92014       62.34054
H         61.86024       26.90093       63.55015
H         62.36826       28.35123       64.47105
N         64.06795       30.20814       61.23030
C         64.89770       31.40546       61.24984
C         66.16517       31.23267       62.06718
O         66.79485       32.23356       62.37698
H         64.00827       29.68306       60.34770
H         64.29126       32.25390       61.63710
H         65.21266       31.67277       60.21807
N         66.63484       29.99008       62.39226
C         67.83867       29.70061       63.17142
C         69.15939       30.09871       62.50865
O         70.18654       29.76587       63.08619
C         67.73147       30.27673       64.60355
C         66.56538       29.64097       65.38221
C         66.46053       30.13090       66.80710
N         65.52366       29.60379       67.62849
O         67.21745       30.99270       67.23136
H         66.10298       29.16937       62.07647
H         67.90659       28.59319       63.27063
H         67.62289       31.38169       64.57480
H         68.66671       30.04173       65.15809
H         66.72406       28.54097       65.41218
H         65.60356       29.84677       64.86669
H         64.88422       28.86882       67.29180
H         65.44348       29.92201       68.60575
N         69.25277       30.77809       61.32503
C         70.55451       31.11756       60.74268
C         71.30979       29.88226       60.27599
O         70.70163       28.85458       60.00912
C         70.47071       32.15959       59.58773
C         69.53873       31.73530       58.43618
C         70.06147       33.53609       60.12615
H         68.39929       31.08483       60.85033
H         71.16501       31.58519       61.54860
H         71.49394       32.28062       59.16544
H         69.83822       30.74925       58.02582
H         68.47818       31.68222       58.75699
H         69.59344       32.48131       57.61483
H         69.04975       33.50736       60.58062
H         70.79160       33.87023       60.89546
H         70.07143       34.28601       59.30652
N         72.67178       29.92812       60.19606
C         73.50959       28.81506       59.76273
C         74.48876       29.25222       58.68064
O         74.57606       30.42767       58.35232
C         74.30003       28.27696       60.97833
C         73.40513       27.55632       61.95213
N         72.79984       26.39901       61.59195
O         73.24826       27.99925       63.07965
H         73.14797       30.79118       60.50221
H         72.89067       27.99790       59.33187
H         74.81860       29.12807       61.47436
H         75.07762       27.54637       60.67146
H         72.94764       25.99758       60.65373
H         72.20135       25.88784       62.25691
N         75.28014       28.30957       58.09642
C         76.33159       28.58220       57.11978
C         75.78188       29.25860       55.87872
O         74.76854       28.81870       55.35640
C         77.05672       27.25717       56.78732
C         78.29720       27.43567       55.94322
C         79.56716       27.36714       56.54144
C         78.20616       27.64693       54.55886
C         80.72251       27.51758       55.77137
C         79.36394       27.78522       53.78547
C         80.62514       27.72385       54.38856
O         81.73347       27.86070       53.63312
H         75.14043       27.33015       58.39123
H         77.09024       29.24371       57.59531
H         76.37672       26.51269       56.31736
H         77.37057       26.82790       57.76478
H         79.66475       27.20688       57.60795
H         77.24024       27.68772       54.07928
H         81.69180       27.47023       56.25150
H         79.28067       27.93745       52.71651
H         82.62263       27.82133       54.01422
N         76.45382       30.31274       55.32700
C         76.02471       31.02649       54.12912
C         76.97384       30.69417       52.97491
O         78.17366       30.79473       53.18642
C         76.01187       32.54314       54.41431
C         75.58737       33.36194       53.18199
C         75.48865       34.82385       53.50716
O         74.43005       35.41367       53.35988
O         76.56879       35.49598       53.94929
H         77.34860       30.59899       55.75398
H         74.98821       30.74358       53.90577
H         77.02183       32.87770       54.74094
H         75.29494       32.73449       55.24322
H         74.60228       32.99962       52.81574
H         76.33338       33.23652       52.36761
N         76.56841       30.31044       51.71963
C         75.19024       30.26409       51.22556
C         75.02348       31.25908       50.08828
O         75.99598       31.89646       49.70162
C         74.79589       28.82544       50.81165
C         75.11682       27.83344       51.94325
C         74.55759       26.42445       51.76374
O         74.87556       25.87905       50.51462
O         73.16625       26.41349       51.89643
H         77.30737       30.07722       51.03618
H         74.46914       30.57938       51.98926
H         75.34542       28.51181       49.89723
H         73.70632       28.80923       50.59105
H         74.71620       28.21492       52.90285
H         76.22003       27.75428       52.02522
N         73.80114       31.47609       49.52881
C         73.57002       32.44813       48.47700
H         72.83466       33.20170       48.82920
H         74.49613       32.98596       48.18094
H         73.16304       31.93608       47.58126
H         72.98643       30.94590       49.87196
Ca        72.75268       25.22300       50.01722
O         73.27273       23.69872       47.62816
H         73.88813       24.46296       47.49318
H         73.06463       23.37870       46.71564
O         71.22933       21.91256       49.35708
H         70.27350       21.96479       49.60839
H         71.26957       21.16320       48.71212
O         73.89009       23.45830       52.94129
H         73.61643       23.01089       53.78068
H         74.75379       23.88992       53.16111
O         74.69218       22.33892       49.99547
H         75.08679       21.99800       50.83692
H         75.34974       22.09466       49.29661

Ca 1.0



