%chk=apoCaM-CA-Ng.loop2.water5.frame469.chk
%nprocshared=20
%mem=10GB
%nosave
#b3lyp/svp scf=(tight,noincore,xqc) Test 
#IOP(5/87=12) Density=Current Pop=(MK,readradii) iop(6/33=2) iop(6/42=6)

apoCaM-CA-Ng.loop2.water5.frame469 

   -2  1 
C         44.41790       40.90298       73.01753
C         44.96572       40.09529       71.87822
O         46.05552       39.55300       71.99860
H         43.44692       40.47434       73.34533
H         45.11808       40.89477       73.88047
H         44.26195       41.95203       72.69129
N         44.23966       39.95174       70.73380
C         44.69649       39.14114       69.60661
C         45.93279       39.75846       68.94906
O         46.27237       40.89466       69.25260
C         43.53530       38.98350       68.59569
C         43.82102       38.00529       67.49305
O         44.07996       36.71597       67.78565
O         43.80265       38.36836       66.32800
H         43.30913       40.39759       70.69219
H         44.95165       38.13519       70.00957
H         43.28380       39.98070       68.17042
H         42.63951       38.60477       69.13484
N         46.67092       39.04298       68.04919
C         47.86540       39.56112       67.38327
C         48.89848       39.97474       68.40767
O         49.23273       39.16967       69.26749
C         48.45851       38.49804       66.45363
H         46.38516       38.07476       67.84549
H         47.58187       40.43403       66.75462
H         47.70863       38.20583       65.68788
H         49.35210       38.90376       65.93265
H         48.75495       37.59389       67.02785
N         49.41287       41.24032       68.40471
C         50.25590       41.73072       69.48999
C         51.56676       40.92991       69.60873
O         51.89230       40.16772       68.70869
C         50.51558       43.26383       69.32223
C         50.80246       43.97306       70.62433
O         50.59158       43.30615       71.77031
O         51.12386       45.14999       70.64092
H         49.11762       41.89196       67.66118
H         49.64195       41.56841       70.40129
H         49.60498       43.76635       68.92956
H         51.33134       43.41302       68.58080
N         52.35414       41.04229       70.71767
C         53.59756       40.33086       70.95926
C         53.43704       38.83126       71.09032
O         52.39420       38.28244       70.76323
H         52.07616       41.67097       71.47080
H         53.99860       40.69439       71.93172
H         54.34911       40.57029       70.17653
N         54.47554       38.10653       71.59741
C         54.49370       36.64747       71.69478
C         53.33014       36.08472       72.50630
O         52.70732       36.80222       73.27737
C         55.83992       36.20457       72.32071
C         56.02880       34.71066       72.37594
N         56.16214       34.07453       73.56405
O         56.06874       34.06925       71.33691
H         55.31450       38.62883       71.89773
H         54.41077       36.25858       70.65599
H         55.89900       36.63034       73.34791
H         56.68142       36.63069       71.73256
H         56.13040       34.59654       74.45230
H         56.29211       33.05284       73.59871
N         52.96375       34.78158       72.32467
C         51.86250       34.13515       73.01763
C         52.15497       33.87903       74.47552
O         53.22369       34.23033       74.95808
H         53.45846       34.22308       71.61420
H         51.68716       33.14060       72.55325
H         50.93705       34.73945       72.89911
N         51.21732       33.24949       75.24117
C         51.39390       32.96535       76.66260
C         50.51005       33.85994       77.52089
O         50.68480       33.85242       78.72999
C         51.20710       31.45715       76.97030
C         49.79873       30.92212       76.66623
O         52.17583       30.69408       76.29414
H         50.32289       32.99347       74.79512
H         52.43191       33.22812       76.96515
H         51.38074       31.31159       78.05897
H         51.99740       30.76633       75.32023
H         49.03411       31.48475       77.24118
H         49.56360       30.99359       75.58444
H         49.73885       29.85197       76.95806
N         49.61106       34.72317       76.95921
C         48.97478       35.80986       77.69664
C         49.48876       37.12012       77.10917
O         50.21263       37.08636       76.12280
C         47.42114       35.69107       77.68851
C         46.83070       35.73617       76.25434
C         46.99929       34.41458       78.44197
C         45.30014       35.76514       76.22271
H         49.44455       34.70056       75.94578
H         49.30541       35.80035       78.75861
H         47.01693       36.55804       78.25676
H         47.17604       34.86143       75.66356
H         47.18281       36.66140       75.75045
H         47.35459       33.50507       77.91274
H         47.42500       34.41822       79.46818
H         45.89827       34.35525       78.55565
H         44.95552       35.84831       75.17036
H         44.86511       34.83511       76.64107
H         44.91817       36.63990       76.79043
N         49.20902       38.31488       77.70048
C         49.77027       39.57551       77.21857
C         50.72502       40.14852       78.26662
O         50.97708       41.34461       78.27020
C         48.60130       40.50469       76.82660
C         48.99679       41.71872       76.02163
O         48.12244       42.42871       75.55152
O         50.28589       41.99951       75.74689
H         48.61929       38.33251       78.54628
H         50.36906       39.41393       76.29569
H         48.01856       40.80150       77.72459
H         47.93242       39.91501       76.15946
N         51.34645       39.31968       79.16002
C         52.26865       39.77646       80.19504
C         51.54329       40.71703       81.15356
O         50.51472       40.30779       81.67495
C         52.78789       38.56105       81.00301
C         53.67704       38.99213       82.14599
C         54.96373       39.50439       81.91012
C         53.20057       38.91312       83.46581
C         55.75417       39.94007       82.97926
C         53.98916       39.35662       84.52907
C         55.26483       39.87074       84.28684
H         51.16342       38.30689       79.10479
H         53.13175       40.26417       79.70148
H         53.33141       37.84174       80.35165
H         51.89976       38.02683       81.40796
H         55.35056       39.57255       80.90078
H         52.20809       38.53084       83.67000
H         56.74312       40.33879       82.79448
H         53.60623       39.30759       85.54000
H         55.87203       40.21708       85.11277
N         52.00975       41.96632       81.48029
C         51.37029       42.82992       82.47042
C         50.01763       43.39772       82.06498
O         49.47672       44.19148       82.82231
C         52.37213       43.97886       82.65216
C         53.68990       43.29732       82.35111
C         53.30923       42.49510       81.11548
H         51.29180       42.25643       83.42206
H         52.22296       44.73716       81.84801
H         52.30669       44.49098       83.63607
H         54.54780       43.98686       82.20682
H         53.92451       42.59074       83.18147
H         53.18710       43.17467       80.24272
H         54.09052       41.74620       80.90723
N         49.41916       43.06094       80.88704
C         48.18214       43.65272       80.40191
C         47.03967       42.64632       80.42216
O         45.94626       43.01000       80.01124
C         48.41780       44.17458       78.96727
C         49.55834       45.20386       78.89909
C         49.79384       45.65782       77.48798
O         50.13669       44.85608       76.63433
O         49.65103       46.95605       77.16151
H         49.85450       42.36606       80.27195
H         47.86958       44.50448       81.04522
H         47.48609       44.64274       78.58035
H         48.67145       43.31152       78.31481
H         50.50545       44.76011       79.27570
H         49.30064       46.07839       79.53385
N         47.19849       41.38055       80.91270
C         46.12888       40.40617       80.97789
H         45.17220       40.79513       80.57198
H         46.41885       39.50474       80.39885
H         45.96646       40.11476       82.03731
H         48.10826       41.07465       81.27951
Ca        50.72665       43.36103       74.00483
O         48.32557       45.91333       73.69029
H         48.90520       46.02363       74.48459
H         48.25530       46.82371       73.30766
O         53.85386       43.11031       74.23187
H         53.61121       43.81049       74.88893
H         53.62176       43.50320       73.35291
O         51.87071       46.16605       73.34844
H         52.61676       46.17075       73.99892
H         51.23938       46.84889       73.68759
O         47.65481       43.19560       72.29868
H         47.58604       42.31079       71.86011
H         47.65285       43.84447       71.55050
O         49.99655       40.47900       72.84193
H         49.07602       40.14465       72.98462
H         50.58011       39.80998       73.27972

Ca 1.0



