%chk=apoCaM-CA-Ng.loop1.water4.frame430.chk
%nprocshared=20
%mem=10GB
%nosave
#b3lyp/svp scf=(tight,noincore,xqc) Test 
#IOP(5/87=12) Density=Current Pop=(MK,readradii) iop(6/33=2) iop(6/42=6)

apoCaM-CA-Ng.loop1.water4.frame430 

   0  1 
C        112.03432       77.60208       69.21789
C        111.71473       77.93911       67.79262
O        110.70172       77.48873       67.27750
H        112.06854       78.53602       69.81839
H        111.26524       76.92712       69.64852
H        113.02436       77.10221       69.26978
N        112.55747       78.74337       67.09276
C        112.33192       79.15956       65.71616
C        113.44404       78.63875       64.80922
O        113.52952       79.09438       63.68644
C        112.26255       80.70676       65.66165
C        111.14792       81.26894       66.50665
O        110.24379       81.90293       65.98661
O        111.15454       81.10468       67.84344
H        113.40766       79.09336       67.56318
H        111.36763       78.77577       65.31578
H        112.08850       81.02381       64.61087
H        113.22423       81.15025       65.99894
N        114.32590       77.67469       65.19770
C        115.46810       77.26493       64.38037
C        115.39069       75.80831       63.95753
O        115.05377       74.98914       64.80120
C        116.75123       77.45078       65.20179
C        117.09531       78.92718       65.40872
C        118.38540       79.04430       66.22127
C        118.84415       80.49917       66.33750
N        120.05741       80.58857       67.14835
H        114.21559       77.22691       66.11944
H        115.55128       77.89041       63.48325
H        117.60334       76.98924       64.66191
H        116.65011       76.92488       66.17704
H        116.26955       79.45584       65.93305
H        117.24485       79.39650       64.41209
H        119.19231       78.46145       65.72351
H        118.21063       78.62030       67.23438
H        118.04231       81.11308       66.80347
H        119.05010       80.90020       65.31916
H        120.37079       81.58460       67.18959
H        119.86075       80.25295       68.11946
H        120.81899       80.00959       66.72469
N        115.80613       75.34625       62.72891
C        116.29701       76.12323       61.57967
C        117.45766       77.04361       61.94834
O        117.29687       78.25501       61.88729
C        115.15219       76.86479       60.84970
C        114.08859       75.93947       60.33957
O        113.11966       76.40098       59.75788
O        114.15657       74.61486       60.57153
H        115.80352       74.32219       62.60004
H        116.67832       75.41770       60.80878
H        115.57194       77.39945       59.97009
H        114.66314       77.59619       61.51525
N        118.68695       76.57785       62.30608
C        119.05611       75.16979       62.26685
C        120.53304       74.94058       62.56502
O        121.22026       75.87458       62.95266
H        119.39845       77.28614       62.54135
H        118.87878       74.81479       61.23179
H        118.43198       74.57996       62.97029
N        121.14286       73.73551       62.35974
C        120.48172       72.54287       61.84371
C        120.98047       72.27622       60.43684
O        122.15896       72.00851       60.24633
C        120.66749       71.32737       62.77635
C        122.09959       70.89464       62.97446
O        122.45621       69.78554       62.61067
O        122.98651       71.70407       63.58383
H        122.16052       73.69521       62.51473
H        119.38725       72.70616       61.79143
H        120.09347       70.47943       62.34045
H        120.22864       71.55843       63.77019
N        120.12411       72.41603       59.38884
C        120.51555       72.29908       57.99651
C        120.53477       73.67722       57.39253
O        121.56817       74.08495       56.88067
H        119.15130       72.69647       59.58269
H        119.79162       71.64293       57.46809
H        121.52603       71.84679       57.88804
N        119.43742       74.47993       57.48076
C        119.41834       75.86372       57.02855
C        119.29806       76.77078       58.24128
O        118.74682       76.35415       59.24739
C        118.25185       76.08045       56.03990
C        118.35958       75.13626       54.83585
O        118.26183       77.40804       55.58594
H        118.58724       74.11651       57.93773
H        120.37158       76.11775       56.51398
H        117.29672       75.87265       56.57930
H        117.37251       77.57710       55.17819
H        118.32909       74.07511       55.16210
H        117.50477       75.30466       54.14735
H        119.30634       75.31926       54.28495
N        119.79762       78.03639       58.20943
C        119.73439       78.96302       59.34033
C        118.72978       80.08242       59.06855
O        118.71276       81.05622       59.80620
C        121.16386       79.46775       59.72962
C        121.85855       80.26307       58.59160
C        122.02200       78.27599       60.20015
C        123.21046       80.86231       58.99602
H        120.21496       78.36975       57.32847
H        119.34221       78.45924       60.24684
H        121.04952       80.14844       60.60338
H        121.20008       81.10607       58.29317
H        122.02649       79.61693       57.70554
H        122.20261       77.56086       59.37009
H        122.99882       78.61136       60.60339
H        121.50886       77.74092       61.02562
H        123.61821       81.45700       58.15142
H        123.09477       81.52956       59.87602
H        123.95399       80.07259       59.22808
N        117.80863       79.96848       58.06467
C        116.81008       80.98554       57.72957
C        115.78931       81.28615       58.83139
O        115.07032       82.26468       58.68631
C        116.04117       80.56948       56.44084
C        115.20299       79.28872       56.63264
O        116.94606       80.35642       55.38855
H        117.83838       79.12694       57.47920
H        117.36809       81.92503       57.52137
H        115.32885       81.37646       56.15192
H        117.25225       81.25044       55.08634
H        114.67649       79.03786       55.68846
H        115.82639       78.41544       56.91401
H        114.43812       79.42605       57.42249
N        115.62228       80.47458       59.91581
C        114.63351       80.67328       60.98433
C        113.18467       80.59719       60.46718
O        112.97319       80.58950       59.26376
C        114.90780       81.98291       61.77647
C        116.36227       82.05799       62.25866
O        114.06508       82.04401       62.89594
H        116.22115       79.64309       59.99647
H        114.77115       79.83119       61.68785
H        114.70416       82.85356       61.11340
H        114.12515       82.96713       63.25448
H        116.60057       81.19484       62.91368
H        117.05861       82.06992       61.39946
H        116.52431       82.99654       62.82997
N        112.13199       80.49760       61.33840
C        110.72697       80.48832       60.94074
C        110.06218       79.12504       61.15818
O        108.88964       79.00570       60.82624
C        109.94032       81.51981       61.79258
C        110.60044       82.90134       61.93121
C        109.73975       83.80536       62.83465
C        110.40964       85.13970       63.20647
N        111.56847       84.95326       64.08536
H        112.31488       80.44535       62.34071
H        110.64194       80.74831       59.86332
H        109.85785       81.11273       62.82711
H        108.91140       81.62545       61.38250
H        110.74409       83.37836       60.93822
H        111.58885       82.75408       62.40322
H        109.48928       83.27965       63.78152
H        108.78738       84.01649       62.30154
H        109.65927       85.75320       63.75314
H        110.70624       85.69458       62.29015
H        112.33815       84.45435       63.59062
H        111.92809       85.88922       64.38088
H        111.29230       84.41957       64.94221
N        110.71024       78.06568       61.73394
C        110.04288       76.79530       62.03024
C        108.89991       77.01403       63.00223
O        109.12776       77.49841       64.10287
C        111.04730       75.77250       62.61651
C        110.42033       74.44369       63.10418
C        109.55917       73.72672       62.08902
O        110.06540       73.26326       60.92909
O        108.37745       73.54143       62.33190
H        111.70193       78.16389       61.99329
H        109.65112       76.36529       61.08176
H        111.57445       76.22371       63.48711
H        111.80876       75.56557       61.84639
H        109.79546       74.66642       63.99681
H        111.23487       73.76526       63.43735
N        107.63618       76.64203       62.65999
C        106.51862       76.77717       63.56620
H        105.59444       76.39349       63.08339
H        106.70664       76.18439       64.48704
H        106.36980       77.84446       63.83130
H        107.46040       76.22832       61.73164
Ca       112.24197       73.47934       60.45901
O        113.42832       70.40386       58.19993
H        113.75870       69.48490       58.03623
H        113.09523       70.70690       57.31825
O        110.77373       74.71593       58.21382
H        111.42432       75.25188       57.69516
H        109.92201       74.80601       57.71808
O        110.25222       71.37878       58.45825
H        109.57756       72.09397       58.34113
H        109.86625       70.78577       59.15098
O        113.61609       73.50839       56.67752
H        113.44714       74.41212       56.31014
H        113.38147       72.89331       55.93779

Ca 1.0



