%chk=apoCaM-CA-Ng.loop3.water2.frame559.chk
%nprocshared=20
%mem=10GB
%nosave
#b3lyp/svp scf=(tight,noincore,xqc) Test 
#IOP(5/87=12) Density=Current Pop=(MK,readradii) iop(6/33=2) iop(6/42=6)

apoCaM-CA-Ng.loop3.water2.frame559 

   0  1 
C         42.54720       11.11788      -17.32185
C         41.43921       10.33875      -17.97072
O         40.27899       10.69669      -17.82883
H         43.25493       11.47751      -18.09974
H         42.15176       11.99436      -16.76742
H         43.09743       10.46179      -16.61442
N         41.74616        9.25516      -18.73048
C         40.75625        8.44076      -19.42825
C         39.89968        7.67548      -18.42698
O         40.45997        7.07117      -17.52376
C         41.49261        7.46731      -20.37371
C         40.60145        6.81708      -21.39339
O         41.08122        6.01785      -22.18002
O         39.29965        7.14491      -21.49764
H         42.74637        9.02340      -18.84380
H         40.13124        9.10200      -20.06458
H         42.02262        6.69505      -19.77512
H         42.24791        8.03513      -20.95993
N         38.54111        7.61680      -18.55430
C         37.67813        6.90614      -17.60549
C         37.26412        5.53030      -18.12909
O         36.72735        4.75527      -17.34585
C         36.47958        7.82143      -17.28287
C         35.45436        7.28411      -16.27231
C         34.33462        8.31981      -16.05419
C         33.17575        7.80109      -15.18642
N         33.59531        7.45921      -13.82758
H         38.10180        8.06309      -19.37382
H         38.24479        6.71317      -16.66894
H         35.95234        7.99940      -18.23623
H         36.87621        8.78999      -16.90509
H         35.96520        7.06398      -15.31181
H         34.99364        6.35674      -16.66967
H         33.89751        8.58793      -17.04078
H         34.75888        9.24411      -15.60368
H         32.71518        6.91197      -15.67132
H         32.40051        8.59831      -15.13335
H         34.03010        8.28964      -13.36435
H         32.75331        7.16848      -13.27978
H         34.26690        6.65948      -13.83962
N         37.51050        5.13035      -19.40942
C         37.23739        3.78792      -19.91540
C         38.50006        3.09047      -20.43126
O         38.39978        1.93156      -20.80230
C         36.11487        3.83292      -20.97756
C         36.32975        4.85261      -22.06564
O         37.40233        4.79085      -22.86836
O         35.51833        5.75033      -22.22550
H         37.91042        5.80494      -20.07106
H         36.86315        3.13270      -19.09711
H         35.16638        4.09083      -20.45752
H         35.98151        2.82418      -21.42633
N         39.72675        3.69885      -20.44584
C         40.95553        3.01525      -20.83511
C         41.03010        2.54677      -22.28344
O         42.01569        1.90112      -22.60945
H         39.82434        4.65901      -20.09921
H         41.08216        2.13303      -20.17111
H         41.81916        3.69379      -20.65584
N         40.05635        2.81256      -23.20341
C         40.06377        2.29792      -24.57187
C         40.04310        3.41705      -25.59479
O         39.27705        4.35715      -25.44612
C         38.81257        1.44039      -24.83840
C         38.67498        0.26796      -23.90642
N         37.54913        0.10884      -23.17199
O         39.57115       -0.55940      -23.83272
H         39.25488        3.38021      -22.92338
H         40.95046        1.65014      -24.75374
H         38.87558        1.04379      -25.87650
H         37.90400        2.07897      -24.77328
H         36.77537        0.78704      -23.23710
H         37.44085       -0.70277      -22.54712
N         40.74598        3.28401      -26.75253
C         40.63973        4.20884      -27.86810
C         41.24107        5.55168      -27.55483
O         42.40448        5.59156      -27.17823
H         41.32369        2.44042      -26.88975
H         39.57849        4.29739      -28.18929
H         41.21169        3.78880      -28.72361
N         40.53695        6.70561      -27.76124
C         41.15066        8.01933      -27.59312
C         41.18337        8.45492      -26.10442
O         41.54450        7.40634      -25.26577
C         40.43620        9.10771      -28.42792
C         40.62552        8.93297      -29.91428
C         39.78586        8.09478      -30.66603
C         41.64742        9.64389      -30.56799
C         39.96790        7.97268      -32.04840
C         41.83208        9.51447      -31.94525
C         40.99052        8.67945      -32.69185
O         41.15338        8.55243      -34.02408
H         39.58478        6.64023      -28.14941
H         42.19616        7.96377      -27.97563
H         40.88410       10.08940      -28.16192
H         39.35964        9.19897      -28.18475
H         38.98174        7.54886      -30.19139
H         42.30706       10.29680      -30.00916
H         39.31026        7.33137      -32.62133
H         42.62745       10.06697      -32.42961
H         41.84742        9.02733      -34.50377
N         42.04396        9.64587      -25.93830
C         42.62262       10.00087      -24.62604
C         41.57093       10.26365      -23.55443
O         40.86606        9.34328      -23.16817
C         43.68794        8.98014      -24.07508
C         44.51815        9.58826      -22.90486
C         44.62850        8.40789      -25.15288
C         45.46968       10.72873      -23.30315
H         42.81849        9.65165      -26.64276
H         43.16254       10.94762      -24.82463
H         43.15141        8.10628      -23.64818
H         45.13909        8.78403      -22.45377
H         43.83473        9.95665      -22.11035
H         44.05855        7.82841      -25.90722
H         45.18814        9.20686      -25.67823
H         45.34908        7.70056      -24.68716
H         46.22683       10.37952      -24.03543
H         44.92969       11.59788      -23.72659
H         46.01764       11.08230      -22.40545
N         41.51258       11.47806      -22.93477
C         40.79522       11.67775      -21.67548
C         39.27497       11.57915      -21.75534
O         38.66014       11.47682      -20.70207
C         41.18585       13.02086      -21.03510
O         42.57209       13.07531      -20.81282
H         42.13003       12.22899      -23.27837
H         41.15082       10.88410      -20.98794
H         40.68201       13.13830      -20.05210
H         40.84796       13.86871      -21.67684
H         42.97276       13.59290      -21.55938
N         38.58631       11.66752      -22.92752
C         37.12244       11.63064      -22.97401
C         36.61308       10.22957      -22.66661
O         37.04621        9.30991      -23.34572
C         36.62803       12.04727      -24.36318
H         39.11197       11.82551      -23.80065
H         36.71834       12.38445      -22.26613
H         35.51729       12.05062      -24.38664
H         36.98444       13.07304      -24.59645
H         36.99784       11.35729      -25.14700
N         35.69613        9.93601      -21.69653
C         35.05231       10.89073      -20.79747
C         34.14442       11.86198      -21.54280
O         33.44342       11.40246      -22.43423
C         34.14587       10.14363      -19.81101
H         35.44541        8.93894      -21.58979
H         35.84369       11.37229      -20.20206
H         33.67643       10.85222      -19.09616
H         33.34273        9.58946      -20.34496
H         34.73688        9.42222      -19.23215
N         33.96213       13.17395      -21.19122
C         34.65358       13.89865      -20.12673
C         35.31848       15.13673      -20.69642
O         36.52453       15.27985      -20.54718
C         33.73581       14.19871      -18.90760
C         32.55589       15.17538      -19.05941
C         31.47679       14.67522      -19.97306
O         30.85495       13.51048      -19.70820
O         31.13279       15.33655      -20.93935
H         33.24692       13.69207      -21.72193
H         35.45395       13.28807      -19.68252
H         34.38921       14.62848      -18.11561
H         33.34788       13.23430      -18.51221
H         32.92321       16.17324      -19.37538
H         32.09703       15.30870      -18.05550
N         34.60211       16.06795      -21.38606
C         35.20819       17.25829      -21.93600
H         36.00563       16.98017      -22.65662
H         34.43969       17.85867      -22.46859
H         35.63711       17.87455      -21.11812
H         33.59495       15.93263      -21.54323
Ca        39.50116        6.92892      -24.38159
O         36.54005        6.48284      -25.44638
H         36.51168        5.51452      -25.24521
H         35.61924        6.80174      -25.27207
O         38.01552        8.94759      -25.95789
H         38.51304        9.79952      -26.03900
H         37.42392        8.92001      -26.75081

Ca 1.0



