%chk=apoCaM-CA-Ng.loop4.water4.frame769.chk
%nprocshared=20
%mem=10GB
%nosave
#b3lyp/svp scf=(tight,noincore,xqc) Test 
#IOP(5/87=12) Density=Current Pop=(MK,readradii) iop(6/33=2) iop(6/42=6)

apoCaM-CA-Ng.loop4.water4.frame769 

   -3  1 
C         93.55899       -2.73319       35.49714
C         94.42312       -3.12874       36.65922
O         94.64041       -4.30998       36.86947
H         92.67223       -2.17337       35.86240
H         94.13894       -2.08324       34.80774
H         93.21182       -3.62668       34.93549
N         94.95567       -2.16712       37.46154
C         95.82691       -2.41025       38.61309
C         97.13138       -3.04443       38.17523
O         97.56201       -4.04790       38.72774
C         95.09606       -3.19292       39.72268
C         93.79810       -2.51036       40.01310
O         92.67183       -3.15009       39.68165
O         93.76057       -1.35613       40.40981
H         94.73593       -1.18277       37.24255
H         96.09301       -1.41466       39.03352
H         95.71241       -3.26750       40.64327
H         94.88096       -4.22608       39.37078
N         97.80971       -2.47492       37.14503
C         99.10161       -2.93938       36.65568
C        100.18524       -2.58982       37.66957
O        100.19302       -1.44850       38.11004
C         99.41378       -2.32880       35.24274
C         99.50789       -0.77678       35.21055
C         98.38161       -2.86373       34.22769
C         99.97453       -0.23279       33.85920
H         97.36077       -1.67543       36.67848
H         99.04621       -4.03763       36.51744
H        100.40726       -2.70388       34.92659
H        100.26389       -0.43792       35.94452
H         98.53783       -0.30286       35.46313
H         98.37745       -3.97305       34.24247
H         97.35761       -2.50393       34.46278
H         98.63336       -2.56871       33.19120
H         99.24290       -0.44890       33.05597
H        100.08372        0.86979       33.92508
H        100.96012       -0.67028       33.59130
N        101.14469       -3.45254       38.12552
C        101.36441       -4.84540       37.72911
C        102.53722       -5.40043       38.52743
O        103.63098       -4.85757       38.43586
C        101.71263       -4.99392       36.22753
C        102.00297       -6.42566       35.86077
O        101.06001       -7.37237       36.03011
O        103.09381       -6.73448       35.40860
H        101.78956       -3.06052       38.83197
H        100.44642       -5.43457       37.94856
H        102.59192       -4.35638       35.98625
H        100.87788       -4.69045       35.58472
N        102.37949       -6.50381       39.30389
C        103.45878       -7.11099       40.06523
C        103.69742       -8.52698       39.60171
O        104.81672       -8.86317       39.24146
H        101.44695       -6.93927       39.35275
H        103.16842       -7.12607       41.13716
H        104.40532       -6.53234       39.98340
N        102.67213       -9.42137       39.60921
C        102.81719      -10.83674       39.28231
C        103.37213      -11.13906       37.89559
O        103.86375      -12.24646       37.72253
C        101.47232      -11.57437       39.49258
C        100.31373      -10.92757       38.76209
O         99.26792      -10.45081       39.46366
O        100.31530      -10.80804       37.54960
H        101.75159       -9.08528       39.92686
H        103.55734      -11.25915       39.99862
H        101.23322      -11.54885       40.57724
H        101.56798      -12.64051       39.19247
N        103.32186      -10.25853       36.85580
C        103.87423      -10.57435       35.54173
C        103.19841      -11.73672       34.81437
O        103.65280      -12.05649       33.72649
H        102.90328       -9.32763       36.99611
H        104.95630      -10.80382       35.65932
H        103.78975       -9.67820       34.88886
N        102.11276      -12.39903       35.32169
C        101.41189      -13.50151       34.66271
C        100.77394      -13.08406       33.34481
O        100.47054      -13.94915       32.53221
C        102.31276      -14.75829       34.53263
C        102.80702      -15.30347       35.89063
C        101.72139      -15.86449       36.78928
N        102.04699      -16.36264       38.00404
O        100.55404      -15.89167       36.42817
H        101.73003      -12.11437       36.22324
H        100.54962      -13.78202       35.29863
H        103.19494      -14.51497       33.90499
H        101.75954      -15.57675       34.02180
H        103.35475      -14.50312       36.42906
H        103.52218      -16.13015       35.69131
H        103.02452      -16.36084       38.32920
H        101.31911      -16.75327       38.62143
N        100.47489      -11.77801       33.09265
C         99.82044      -11.31104       31.87508
C         98.55643      -10.49279       32.15791
O         97.94852      -10.04659       31.19853
C        100.82113      -10.44786       31.04493
C        101.37527       -9.24496       31.83560
C        101.98158      -11.30352       30.52163
H        100.73671      -11.07069       33.79429
H         99.50634      -12.16940       31.23986
H        100.28867      -10.05379       30.15126
H        100.55160       -8.59825       32.19804
H        101.98245       -9.57205       32.70580
H        102.03126       -8.62913       31.18563
H        102.57129      -11.73413       31.35562
H        101.58959      -12.13264       29.89516
H        102.65719      -10.68614       29.89178
N         98.15103      -10.17987       33.42950
C         97.15472       -9.14280       33.69423
C         96.09405       -9.59486       34.70024
O         96.17772      -10.68449       35.24173
C         97.97472       -7.93890       34.22489
C         97.21547       -6.66644       34.47092
N         97.19469       -6.11174       35.70441
O         96.63133       -6.11942       33.54728
H         98.66482      -10.54518       34.24003
H         96.63819       -8.84000       32.75804
H         98.75482       -7.69145       33.47413
H         98.49343       -8.25338       35.15667
H         97.68580       -6.55361       36.49518
H         96.69311       -5.22996       35.86801
N         95.08118       -8.73461       35.01816
C         94.11113       -8.92001       36.08885
C         92.71239       -8.71668       35.53880
O         92.49082       -7.73618       34.84361
C         94.42996       -7.85855       37.16077
C         93.53799       -7.89977       38.37873
C         92.80286       -6.76120       38.75119
C         93.46090       -9.05462       39.17578
C         92.01182       -6.77476       39.90266
C         92.66236       -9.06820       40.32386
C         91.93956       -7.92910       40.69395
O         91.18665       -7.95271       41.81210
H         95.02889       -7.83957       34.51939
H         94.20778       -9.92153       36.55922
H         94.38554       -6.85375       36.69027
H         95.47505       -8.01695       37.50607
H         92.85047       -5.85630       38.16010
H         94.02353       -9.94209       38.91636
H         91.46096       -5.88545       40.18206
H         92.61332       -9.96270       40.93201
H         90.68340       -7.18106       42.10930
N         91.70544       -9.58256       35.85009
C         90.35199       -9.43823       35.32737
C         89.42061       -9.06116       36.46498
O         89.15768       -9.91853       37.29687
C         89.94144      -10.78270       34.68315
C         88.54015      -10.78244       34.05522
C         88.16761      -12.14097       33.51323
O         89.00521      -13.19305       33.62271
O         87.08246      -12.29793       32.97802
H         91.89819      -10.35676       36.50346
H         90.32466       -8.65333       34.55096
H         89.98056      -11.57333       35.46747
H         90.68377      -11.04522       33.89791
H         88.51179      -10.03992       33.22970
H         87.78260      -10.50212       34.81772
N         88.90584       -7.80686       36.64696
C         89.22018       -6.60489       35.86676
C         88.57347       -6.64064       34.49591
O         87.35970       -6.77396       34.41101
C         88.70828       -5.34452       36.61360
C         89.40576       -5.15370       37.97214
C         88.70483       -4.11256       38.80536
O         88.77289       -2.80609       38.49515
O         88.17160       -4.44195       39.85227
H         88.30002       -7.69111       37.47478
H         90.32287       -6.49357       35.77738
H         87.61328       -5.45735       36.77513
H         88.87797       -4.42966       36.00163
H         90.47842       -4.89400       37.82621
H         89.37424       -6.10233       38.54369
N         89.32422       -6.46971       33.37265
C         88.73400       -6.41767       32.05226
H         88.01230       -5.57383       31.99484
H         89.52464       -6.25231       31.28941
H         88.21014       -7.37002       31.82745
H         90.34443       -6.34386       33.45403
Ca        90.80264       -2.11147       39.05784
O         88.49657       -0.83207       42.41086
H         88.59924        0.08278       42.77557
H         87.55448       -0.87376       42.10905
O         88.87761        0.56282       39.56430
H         88.50832        1.43418       39.85573
H         88.98367        0.65258       38.58395
O         91.37288        0.68058       41.92480
H         90.72798        1.42867       41.85317
H         91.73256        0.75099       42.84469
O         91.16629       -2.74612       42.70566
H         91.00229       -3.69311       42.46696
H         91.58666       -2.78474       43.60148

Ca 1.0



