%chk=apoCaM-CA-Ng.loop1.water4.frame472.chk
%nprocshared=20
%mem=10GB
%nosave
#b3lyp/svp scf=(tight,noincore,xqc) Test 
#IOP(5/87=12) Density=Current Pop=(MK,readradii) iop(6/33=2) iop(6/42=6)

apoCaM-CA-Ng.loop1.water4.frame472 

   0  1 
C         54.75268       26.16543       79.28457
C         53.65416       25.94780       78.28509
O         52.69713       25.25868       78.60137
H         55.55787       26.80861       78.86991
H         54.34113       26.65760       80.19011
H         55.19565       25.18783       79.56688
N         53.72458       26.51849       77.05103
C         52.69663       26.36940       76.02325
C         52.67029       24.97409       75.39569
O         51.92209       24.80857       74.44810
C         52.89972       27.42319       74.90386
C         52.72389       28.83677       75.40222
O         53.55056       29.34892       76.33330
O         51.82991       29.53501       74.94990
H         54.53611       27.12095       76.84726
H         51.69714       26.58056       76.45588
H         52.13223       27.26268       74.11455
H         53.90087       27.30715       74.43646
N         53.42820       23.92295       75.82626
C         53.45206       22.64099       75.12541
C         52.92325       21.48612       75.95317
O         53.38156       21.32741       77.07611
C         54.88991       22.30005       74.71075
C         55.35169       23.12505       73.50897
C         56.77907       22.73061       73.12383
C         57.18008       23.34522       71.78116
N         58.55677       22.98839       71.44322
H         54.03953       24.02243       76.64681
H         52.85453       22.70608       74.21957
H         54.92395       21.23697       74.38617
H         55.57437       22.41037       75.58106
H         55.30208       24.21454       73.72286
H         54.66883       22.89662       72.66029
H         56.85041       21.62570       73.02377
H         57.47287       23.05914       73.92840
H         57.08227       24.45184       71.82207
H         56.49676       22.95859       70.99057
H         59.21144       23.39578       72.14983
H         58.66715       21.94809       71.42016
H         58.78903       23.37430       70.50018
N         52.06459       20.53434       75.45283
C         51.40999       20.50610       74.13541
C         52.37031       20.68285       72.94635
O         52.23748       21.66390       72.23110
C         50.22561       21.50589       74.07893
C         49.11126       21.18091       75.03844
O         48.10418       21.87036       75.04155
O         49.20401       20.14258       75.89172
H         51.86366       19.72711       76.06394
H         50.92754       19.51332       74.00145
H         49.77319       21.45768       73.06520
H         50.57174       22.54092       74.26279
N         53.31948       19.78244       72.57867
C         53.56369       18.50036       73.19837
C         55.05294       18.25018       73.34637
O         55.84309       19.12599       73.02444
H         53.85474       19.98906       71.72050
H         53.16007       17.74012       72.50576
H         53.04112       18.40096       74.16970
N         55.54624       17.07306       73.82306
C         54.71019       15.96374       74.26724
C         53.91672       15.31265       73.13985
O         54.18191       15.55099       71.96867
C         55.56769       14.89823       74.99272
C         56.62514       14.23409       74.13833
O         56.77211       14.52206       72.96033
O         57.42778       13.30639       74.69204
H         56.57113       16.99695       73.92231
H         53.99220       16.37226       75.01203
H         54.90470       14.10638       75.40034
H         56.07732       15.38719       75.85072
N         52.90492       14.46179       73.46036
C         52.09664       13.73142       72.50204
C         51.35661       14.62004       71.53275
O         51.43960       14.36616       70.33884
H         52.69131       14.31057       74.45808
H         51.33967       13.14564       73.06668
H         52.73263       13.00924       71.94367
N         50.60733       15.67598       71.96414
C         49.80349       16.48740       71.05437
C         50.52941       17.78313       70.76219
O         50.70189       18.59234       71.65778
C         48.39918       16.73619       71.64677
C         47.66542       15.42142       71.93448
O         47.64335       17.50437       70.74678
H         50.62396       15.92336       72.96583
H         49.67080       15.94641       70.09128
H         48.52542       17.29287       72.60596
H         46.93134       17.94912       71.27750
H         46.66834       15.63636       72.37365
H         47.52821       14.84052       70.99805
H         48.23334       14.80484       72.66326
N         51.03217       18.01042       69.51557
C         51.89776       19.14276       69.18874
C         51.13466       20.42994       68.87078
O         51.78958       21.41250       68.55760
C         52.91007       18.76486       68.05539
C         52.21589       18.48077       66.69458
C         53.79746       17.58738       68.51658
C         53.20056       18.23615       65.54806
H         50.91474       17.26185       68.81990
H         52.53191       19.36103       70.06642
H         53.58668       19.63754       67.91327
H         51.60221       19.36356       66.41616
H         51.54405       17.60124       66.75914
H         53.20355       16.65949       68.65319
H         54.60885       17.38264       67.79000
H         54.29077       17.83469       69.48132
H         53.79669       17.31591       65.71434
H         52.63673       18.09826       64.60150
H         53.88371       19.10375       65.43154
N         49.77092       20.51109       68.90406
C         49.02828       21.70821       68.48092
C         49.25858       22.97155       69.32862
O         48.78910       24.02390       68.91996
C         47.50846       21.40352       68.39357
C         46.87935       21.13624       69.76808
O         47.28631       20.28649       67.57089
H         49.24060       19.66590       69.15455
H         49.37417       21.94327       67.44892
H         46.97662       22.28311       67.96199
H         47.48330       20.56902       66.63975
H         47.34887       20.26531       70.26775
H         46.98697       22.02133       70.42874
H         45.79571       20.92755       69.64791
N         49.95205       22.95006       70.50354
C         50.26367       24.11771       71.34364
C         49.02506       24.75471       71.98748
O         47.90477       24.43923       71.61390
C         51.13336       25.15977       70.57096
C         52.38402       24.53167       69.93720
O         51.52080       26.22549       71.40051
H         50.30916       22.04408       70.82647
H         50.87054       23.74089       72.19047
H         50.53438       25.59445       69.74430
H         52.18096       25.87459       72.05367
H         52.97161       25.31346       69.41089
H         53.02660       24.06232       70.71284
H         52.09957       23.76892       69.19042
N         49.18373       25.64076       73.01962
C         48.10969       26.34800       73.71298
C         47.98053       25.93460       75.18470
O         47.06692       26.42570       75.83387
C         48.42358       27.86515       73.66684
C         48.48482       28.46279       72.24789
C         47.12790       28.53270       71.52645
C         46.13830       29.48233       72.22827
N         44.88787       29.58797       71.48012
H         50.13397       25.84553       73.34238
H         47.13015       26.13120       73.23688
H         49.42161       28.01369       74.13775
H         47.70546       28.44114       74.28305
H         49.19973       27.87486       71.63329
H         48.88776       29.49718       72.31718
H         46.68876       27.51830       71.42777
H         47.31334       28.92461       70.50257
H         46.59737       30.49330       72.31256
H         45.90410       29.11862       73.25008
H         44.42733       28.65103       71.42124
H         44.24898       30.24901       71.97898
H         45.07211       29.95643       70.51904
N         48.84164       25.06265       75.78958
C         48.73833       24.66584       77.19648
C         48.81687       25.86971       78.12071
O         49.80729       26.58556       78.09064
C         49.87796       23.67641       77.54677
C         49.93560       23.18878       79.00738
C         48.74530       22.36792       79.42220
O         47.52010       22.91894       79.48963
O         48.89404       21.20075       79.74688
H         49.60146       24.65474       75.23368
H         47.76805       24.15026       77.33758
H         50.84165       24.17369       77.32657
H         49.81798       22.79209       76.89209
H         50.05051       24.04731       79.70210
H         50.84786       22.55901       79.10371
N         47.80924       26.12128       79.00368
C         47.84020       27.20357       79.96680
H         46.96635       27.86767       79.80636
H         47.78490       26.77879       80.99187
H         48.76650       27.81131       79.89490
H         46.98409       25.50386       79.01880
Ca        47.54017       19.67368       77.34322
O         45.74127       22.35332       77.08981
H         45.36752       22.95002       77.78559
H         45.82056       22.92685       76.28690
O         48.78668       17.05120       75.74427
H         49.50916       17.49459       75.23247
H         48.04756       16.94916       75.09344
O         45.20622       20.21622       79.24706
H         45.35237       20.69750       80.09982
H         44.74384       19.38031       79.50694
O         44.93583       19.71418       75.65980
H         45.45289       20.35704       75.11214
H         45.00907       18.85707       75.16992

Ca 1.0



