%chk=apoCaM-CA-Ng.loop2.water2.frame970.chk
%nprocshared=20
%mem=10GB
%nosave
#b3lyp/svp scf=(tight,noincore,xqc) Test 
#IOP(5/87=12) Density=Current Pop=(MK,readradii) iop(6/33=2) iop(6/42=6)

apoCaM-CA-Ng.loop2.water2.frame970 

   -2  1 
C         64.68313       31.57848       43.67771
C         63.76997       30.44057       43.33040
O         62.72572       30.66734       42.73541
H         65.67138       31.42143       43.19648
H         64.26326       32.54465       43.32543
H         64.81801       31.62677       44.77871
N         64.10818       29.16867       43.68228
C         63.26392       28.01113       43.39649
C         63.15789       27.70578       41.89700
O         62.40229       26.80903       41.54874
C         63.81401       26.78270       44.16031
C         62.91367       25.58093       44.07038
O         63.32603       24.53838       43.58770
O         61.64962       25.64753       44.53099
H         64.98325       29.03252       44.21342
H         62.24836       28.23140       43.79604
H         63.90953       27.04000       45.23771
H         64.82700       26.53204       43.77336
N         63.87640       28.38836       40.95408
C         63.81995       28.08951       39.52754
C         65.22508       27.76663       39.04450
O         66.07628       28.63840       39.16135
C         63.26622       29.30119       38.77286
H         64.51181       29.14499       41.24142
H         63.12757       27.24965       39.33691
H         63.21832       29.08706       37.68397
H         62.24137       29.53265       39.13363
H         63.90541       30.19610       38.93537
N         65.60767       26.55782       38.53411
C         64.74039       25.39169       38.33738
C         65.56161       24.09992       38.24504
O         66.78067       24.15916       38.31281
C         63.83042       25.59177       37.10158
C         64.62264       25.70192       35.82947
O         65.52690       26.68643       35.67647
O         64.45245       24.89553       34.92990
H         66.61053       26.47048       38.31050
H         64.11735       25.25854       39.24760
H         63.22297       26.51251       37.20878
H         63.12234       24.73916       37.02201
N         64.94981       22.87979       38.18187
C         65.68973       21.62690       38.28849
C         65.32243       20.60207       37.23492
O         64.75519       19.58742       37.61450
H         63.91974       22.83380       38.17676
H         65.42342       21.19364       39.27743
H         66.78985       21.77309       38.29022
N         65.62177       20.71260       35.90926
C         66.31253       21.82812       35.28364
C         67.81682       21.60203       35.32631
O         68.30464       20.64278       34.74393
C         65.79427       21.95432       33.83388
C         66.35716       23.09071       33.02852
N         65.95037       23.24747       31.74842
O         67.17227       23.86271       33.50954
H         65.34697       19.92346       35.30111
H         66.04588       22.76858       35.80676
H         64.69026       22.08446       33.86831
H         66.01586       21.01256       33.28545
H         65.26129       22.60357       31.33332
H         66.32405       24.00178       31.16314
N         68.61120       22.46220       36.01938
C         70.05501       22.35257       36.11877
C         70.72602       22.64020       34.79959
O         71.55624       21.85805       34.36889
H         68.17052       23.24209       36.52283
H         70.34847       21.36124       36.52843
H         70.41254       23.13109       36.82768
N         70.44477       23.80838       34.15450
C         71.08559       24.27209       32.91612
C         70.82158       25.77275       32.71259
O         70.07638       26.37632       33.46802
C         70.59682       23.49717       31.64723
C         70.97809       22.01898       31.57992
O         69.20446       23.59839       31.51400
H         69.77695       24.42659       34.63270
H         72.18713       24.17358       33.02885
H         71.09055       23.93514       30.74975
H         69.01393       24.48912       31.12444
H         70.43609       21.42351       32.33887
H         70.68354       21.60664       30.59105
H         72.07715       21.89741       31.69100
N         71.42135       26.43890       31.68181
C         71.19265       27.85423       31.40326
C         70.51698       27.94075       30.05058
O         71.07513       27.45266       29.07914
C         72.53559       28.63747       31.44351
C         72.36545       30.14946       31.12379
C         73.24483       28.43996       32.79674
C         71.50596       30.93312       32.12136
H         72.05752       25.92504       31.05628
H         70.51946       28.29268       32.16710
H         73.20589       28.21654       30.66111
H         71.91727       30.26349       30.11352
H         73.37085       30.62293       31.09346
H         72.61402       28.79069       33.63965
H         73.47075       27.36618       32.96619
H         74.20911       28.99071       32.80999
H         71.94568       30.91164       33.13936
H         71.44363       31.99498       31.80324
H         70.47894       30.52713       32.15520
N         69.28460       28.51635       29.92928
C         68.51224       28.48224       28.69025
C         68.27729       29.85918       28.10623
O         67.73525       29.92085       27.00827
C         67.15348       27.81744       28.96948
C         67.32267       26.47689       29.61086
O         67.87712       25.56630       29.01655
O         66.88329       26.29232       30.86804
H         68.85003       28.94548       30.75731
H         69.05467       27.89246       27.91916
H         66.56100       27.70703       28.03552
H         66.58058       28.46620       29.66982
N         68.61683       31.00736       28.76091
C         68.39548       32.31990       28.17193
C         68.64355       33.42914       29.19514
O         69.74930       33.50212       29.71852
C         69.35317       32.53920       26.97520
C         69.10694       33.88862       26.34656
C         70.01160       34.94139       26.56073
C         67.95437       34.11631       25.57568
C         69.75840       36.20663       26.02601
C         67.71171       35.38103       25.03080
C         68.61025       36.42663       25.26081
H         69.01217       30.95639       29.71154
H         67.34826       32.36256       27.80883
H         69.25749       31.75581       26.19409
H         70.39397       32.47804       27.36361
H         70.89818       34.78948       27.16370
H         67.24538       33.31642       25.39973
H         70.45012       37.01775       26.21137
H         66.82340       35.55282       24.43691
H         68.41609       37.40806       24.84876
N         67.70127       34.38110       29.48055
C         67.96990       35.57010       30.27477
C         67.82466       35.34415       31.77330
O         67.91130       36.31974       32.50613
C         66.91412       36.55184       29.75427
C         65.72199       35.64043       29.55259
C         66.37727       34.43757       28.88409
H         68.97386       36.00197       30.06278
H         66.73999       37.44531       30.39037
H         67.23212       36.90352       28.74430
H         65.35781       35.33835       30.56064
H         64.87338       36.07317       28.98223
H         65.77252       33.52392       29.07067
H         66.48876       34.61384       27.79485
N         67.60132       34.10854       32.31012
C         67.39765       33.89863       33.74404
C         68.57869       34.32508       34.61356
O         68.41802       34.33329       35.82710
C         67.03740       32.42359       34.03703
C         68.18765       31.45493       33.71165
C         67.78722       30.03778       33.97811
O         67.78508       29.22662       33.06821
O         67.43971       29.64992       35.22013
H         67.51843       33.30223       31.67754
H         66.52471       34.52321       34.03823
H         66.14234       32.14922       33.43573
H         66.76847       32.31965       35.11169
H         69.08026       31.68925       34.32971
H         68.46771       31.55189       32.64313
N         69.78850       34.67885       34.09314
C         70.88433       35.10273       34.93737
H         71.77304       35.34079       34.31559
H         70.59364       36.01383       35.50349
H         71.15192       34.29374       35.64977
H         69.95585       34.64468       33.07837
Ca        66.82378       26.71179       33.83591
O         68.84101       26.28311       36.37532
H         68.49285       27.20875       36.41763
H         68.03534       25.72012       36.25825
O         64.56693       27.92000       32.27777
H         63.86461       27.40006       31.81241
H         64.09271       28.70458       32.65135

Ca 1.0



