%chk=apoCaM-CA-Ng.loop4.water4.frame779.chk
%nprocshared=20
%mem=10GB
%nosave
#b3lyp/svp scf=(tight,noincore,xqc) Test 
#IOP(5/87=12) Density=Current Pop=(MK,readradii) iop(6/33=2) iop(6/42=6)

apoCaM-CA-Ng.loop4.water4.frame779 

   -3  1 
C         86.32729      -15.96920       -5.03881
C         86.11244      -17.43864       -5.25186
O         86.16467      -17.87626       -6.39050
H         87.33553      -15.68639       -5.40911
H         85.56101      -15.39548       -5.60188
H         86.25945      -15.69913       -3.96503
N         85.87446      -18.27446       -4.19798
C         85.65794      -19.71553       -4.33459
C         86.89383      -20.45384       -4.85431
O         86.78171      -21.63871       -5.13880
C         84.42512      -20.00273       -5.22841
C         83.20679      -19.27083       -4.74151
O         82.63805      -18.47256       -5.46975
O         82.73921      -19.49033       -3.49879
H         85.82827      -17.87430       -3.24871
H         85.43237      -20.13544       -3.32896
H         84.20529      -21.09182       -5.21834
H         84.62536      -19.72014       -6.28271
N         88.10467      -19.83193       -4.99907
C         89.27753      -20.47856       -5.59331
C         89.72131      -21.71988       -4.81754
O         89.24027      -21.92245       -3.71094
C         90.45152      -19.44370       -5.78303
C         90.97369      -18.73434       -4.49829
C         90.02664      -18.37289       -6.79874
C         91.67555      -19.64180       -3.48880
H         88.18619      -18.85015       -4.71546
H         88.95253      -20.83068       -6.59674
H         91.32286      -19.94219       -6.24217
H         90.16569      -18.17340       -3.98543
H         91.73921      -17.99066       -4.81241
H         90.87482      -17.68940       -7.01784
H         89.72486      -18.85112       -7.75499
H         89.18258      -17.76127       -6.42047
H         92.50856      -20.19142       -3.97490
H         92.09662      -19.01916       -2.67143
H         90.97912      -20.35354       -3.01627
N         90.62164      -22.62922       -5.30789
C         91.19546      -22.61967       -6.65036
C         90.81209      -23.90458       -7.35083
O         91.23491      -24.96686       -6.91345
C         92.73158      -22.47555       -6.56978
C         93.41707      -22.38878       -7.91282
O         94.75663      -22.26473       -7.95912
O         92.78398      -22.42002       -8.95724
H         90.88512      -23.41698       -4.69408
H         90.80363      -21.77762       -7.24630
H         93.15393      -23.33733       -6.00862
H         92.98139      -21.55235       -6.00815
N         89.98876      -23.88067       -8.43718
C         89.59692      -25.08164       -9.15053
C         89.83388      -24.93291      -10.62963
O         90.62123      -25.68056      -11.19271
H         89.59600      -22.97967       -8.75021
H         88.51071      -25.26062       -8.99854
H         90.13627      -25.97570       -8.76948
N         89.09255      -24.03808      -11.34086
C         89.09843      -24.00003      -12.79791
C         90.38048      -23.47714      -13.42214
O         90.58792      -23.77309      -14.58928
C         87.85720      -23.25732      -13.35650
C         87.77262      -21.78644      -13.02147
O         87.73675      -21.36589      -11.74296
O         87.67468      -20.96447      -13.91826
H         88.39400      -23.48600      -10.82447
H         88.98238      -25.05553      -13.13480
H         86.94683      -23.74898      -12.95368
H         87.83949      -23.37503      -14.46350
N         91.26622      -22.66860      -12.76644
C         92.43965      -22.12200      -13.44580
C         92.08685      -21.17688      -14.59595
O         92.98279      -20.80571      -15.33957
H         91.10692      -22.42152      -11.77851
H         93.03830      -22.97277      -13.83911
H         93.07758      -21.56442      -12.72590
N         90.80954      -20.72823      -14.78453
C         90.35551      -19.85354      -15.86459
C         90.98023      -18.46404      -15.82836
O         90.85051      -17.73365      -16.80114
C         90.42314      -20.54174      -17.24928
C         89.60808      -21.84970      -17.24607
C         89.38318      -22.40926      -18.62597
N         90.41887      -22.77736      -19.41282
O         88.23896      -22.54449      -19.03460
H         90.09342      -21.00596      -14.11013
H         89.27127      -19.65933      -15.70695
H         91.47067      -20.73609      -17.56345
H         89.95791      -19.85285      -17.98867
H         88.61084      -21.65679      -16.79078
H         90.12824      -22.60609      -16.63301
H         91.39091      -22.68031      -19.08833
H         90.24311      -23.16505      -20.35205
N         91.55172      -17.98574      -14.68622
C         92.05369      -16.62091      -14.52723
C         91.23064      -15.84274      -13.49582
O         91.05005      -14.64614      -13.67268
C         93.56970      -16.61602      -14.18586
C         93.90077      -17.33901      -12.86826
C         94.38172      -17.23442      -15.33471
H         91.60536      -18.61278      -13.87538
H         91.95132      -16.05812      -15.48274
H         93.89371      -15.55621      -14.08311
H         94.98863      -17.26290      -12.65813
H         93.36194      -16.87484      -12.01739
H         93.64058      -18.41689      -12.91889
H         95.46879      -17.17645      -15.11380
H         94.10978      -18.30009      -15.48676
H         94.19364      -16.68168      -16.27993
N         90.70767      -16.45369      -12.39252
C         89.91623      -15.77771      -11.36019
C         88.57710      -15.26747      -11.91556
O         88.28637      -15.52401      -13.07700
C         89.67531      -16.81200      -10.22638
C         89.01598      -16.24131       -9.00742
N         87.79922      -16.68035       -8.61655
O         89.57631      -15.35948       -8.37338
H         90.89890      -17.45502      -12.25895
H         90.51160      -14.92857      -10.95909
H         90.64991      -17.23551       -9.89904
H         89.06617      -17.64831      -10.63872
H         87.30671      -17.42234       -9.13561
H         87.34241      -16.25800       -7.79902
N         87.67962      -14.59893      -11.12024
C         86.31270      -14.30558      -11.54096
C         85.88413      -12.89854      -11.13604
O         86.61569      -12.23431      -10.41303
C         85.39156      -15.32984      -10.83050
C         84.06836      -15.50822      -11.52146
C         82.86340      -15.11073      -10.92300
C         84.04347      -16.11036      -12.78936
C         81.65100      -15.30047      -11.59614
C         82.83448      -16.31152      -13.45311
C         81.63447      -15.90469      -12.86402
O         80.47625      -16.10126      -13.52450
H         87.91708      -14.39611      -10.14224
H         86.23705      -14.42416      -12.64231
H         85.27680      -15.03805       -9.76062
H         85.86473      -16.33584      -10.83504
H         82.86458      -14.64511       -9.94774
H         84.96478      -16.43710      -13.25681
H         80.72674      -14.98043      -11.13236
H         82.83373      -16.78581      -14.42624
H         79.62231      -15.83267      -13.15826
N         84.67321      -12.40205      -11.52622
C         84.10534      -11.16526      -11.00276
C         82.72108      -11.47577      -10.44587
O         81.79081      -11.56020      -11.23692
C         84.00882      -10.08858      -12.10250
C         85.38769       -9.69982      -12.64977
C         85.26579       -8.62334      -13.68931
O         85.86340       -7.43162      -13.49928
O         84.63176       -8.82387      -14.71332
H         84.10548      -12.94048      -12.19701
H         84.74694      -10.74583      -10.20800
H         83.53070       -9.18042      -11.67036
H         83.37331      -10.45874      -12.93787
H         85.88154      -10.58390      -13.10656
H         86.02185       -9.33071      -11.81435
N         82.47276      -11.76477       -9.13479
C         83.46972      -11.82438       -8.07048
C         83.95928      -10.43911       -7.70752
O         83.15203       -9.59080       -7.35122
C         82.87381      -12.48908       -6.80812
C         82.52653      -13.96632       -7.05633
C         81.96712      -14.60475       -5.82195
O         82.69536      -14.64291       -4.68988
O         80.85523      -15.10663       -5.84354
H         81.50038      -12.01994       -8.89799
H         84.32092      -12.46376       -8.39436
H         81.96837      -11.93293       -6.47485
H         83.62885      -12.44833       -5.99120
H         83.44547      -14.51773       -7.35084
H         81.78330      -14.05668       -7.87644
N         85.28871      -10.15049       -7.74551
C         85.80673       -8.85195       -7.37883
H         86.91309       -8.84668       -7.47762
H         85.38364       -8.07203       -8.04614
H         85.54403       -8.62408       -6.32366
H         85.96021      -10.87847       -8.03240
Ca        81.24190      -16.80079       -3.21233
O         78.96395      -18.11987       -4.99515
H         79.24558      -18.80624       -5.65087
H         77.99941      -18.29246       -4.85246
O         79.51640      -15.79561       -1.00596
H         79.06105      -16.50324       -0.48466
H         79.43070      -14.98061       -0.45092
O         79.63937      -19.15721       -2.01705
H         79.49702      -19.03285       -1.04543
H         80.47299      -19.68724       -2.07770
O         78.65546      -14.82876       -3.96528
H         78.00466      -14.44471       -3.32626
H         78.32114      -14.55443       -4.85616

Ca 1.0



