%chk=apoCaM-CA-Ng.loop3.water2.frame606.chk
%nprocshared=20
%mem=10GB
%nosave
#b3lyp/svp scf=(tight,noincore,xqc) Test 
#IOP(5/87=12) Density=Current Pop=(MK,readradii) iop(6/33=2) iop(6/42=6)

apoCaM-CA-Ng.loop3.water2.frame606 

   0  1 
C         71.27693       34.64274       -9.27811
C         71.62826       36.06977       -8.97464
O         72.50279       36.63152       -9.61801
H         70.20572       34.57528       -9.56272
H         71.89890       34.24372      -10.10587
H         71.44603       34.02163       -8.37195
N         70.97158       36.71495       -7.97486
C         71.24851       38.08843       -7.55877
C         72.70430       38.17338       -7.10487
O         73.08881       37.42825       -6.21386
C         70.23147       38.44327       -6.44861
C         70.21251       39.84080       -5.90535
O         69.41606       40.09982       -5.01716
O         71.03846       40.81206       -6.32592
H         70.24004       36.18222       -7.47601
H         71.06933       38.77035       -8.41957
H         70.39244       37.74939       -5.59541
H         69.21125       38.26045       -6.85252
N         73.58581       39.00837       -7.73363
C         75.02915       39.00560       -7.47559
C         75.37321       39.22583       -6.01389
O         76.09495       38.40487       -5.46379
C         75.79642       39.98026       -8.40719
C         75.44156       41.47000       -8.26624
C         76.25465       42.32029       -9.25255
C         75.85349       43.79935       -9.16848
N         76.64229       44.61131      -10.09459
H         73.22139       39.62316       -8.47615
H         75.41611       37.99640       -7.74738
H         75.59871       39.67124       -9.45749
H         76.88689       39.85564       -8.22072
H         75.66696       41.82660       -7.24077
H         74.36258       41.60952       -8.47461
H         76.07725       41.96025      -10.28970
H         77.33751       42.21610       -9.01929
H         76.00658       44.17300       -8.13160
H         74.77605       43.90069       -9.42407
H         76.32807       45.60655      -10.02950
H         77.65618       44.55956       -9.84307
H         76.50411       44.27739      -11.07619
N         74.86309       40.27252       -5.30783
C         75.15030       40.48611       -3.89082
C         73.95297       40.13638       -3.01422
O         74.06978       40.24358       -1.80134
C         75.72991       41.90123       -3.64912
C         74.84458       43.06595       -4.00111
O         73.61145       42.88646       -4.49400
O         75.25847       44.20248       -3.83990
H         74.19690       40.89952       -5.78006
H         75.94716       39.78741       -3.55393
H         76.66152       41.99610       -4.24841
H         76.00456       41.99373       -2.57598
N         72.80562       39.61309       -3.54273
C         71.71463       39.09179       -2.73529
C         70.92183       40.13037       -1.97500
O         69.99876       39.72795       -1.28126
H         72.72428       39.47839       -4.55761
H         72.12158       38.33835       -2.02621
H         70.99999       38.56325       -3.39954
N         71.19969       41.46441       -2.04037
C         70.46798       42.47039       -1.28277
C         69.78952       43.47879       -2.25400
O         70.69535       44.04792       -3.16612
C         71.42874       43.06824       -0.22248
C         72.58602       43.85557       -0.79144
N         73.85633       43.40798       -0.66492
O         72.37920       44.92149       -1.35037
H         71.98250       41.79239       -2.61883
H         69.64385       41.99577       -0.70667
H         71.82025       42.20942        0.36706
H         70.88783       43.70837        0.50258
H         74.06077       42.51473       -0.19511
H         74.64114       43.95593       -1.04684
N         68.96866       44.49850       -1.55279
C         68.76201       45.72086       -2.34422
C         67.96423       45.48049       -3.59784
O         67.30240       44.45812       -3.71860
H         69.45032       44.81111       -0.68254
H         69.74925       46.16326       -2.60377
H         68.23372       46.48837       -1.73797
N         68.01034       46.40611       -4.59611
C         67.27814       46.27911       -5.85313
C         67.63878       45.00489       -6.61320
O         68.49089       44.24422       -6.17847
C         67.52923       47.52146       -6.74259
C         67.03805       48.80242       -6.10784
C         65.67301       48.97189       -5.81563
C         67.93270       49.84817       -5.82396
C         65.21259       50.16395       -5.24944
C         67.46923       51.04089       -5.25879
C         66.10607       51.20267       -4.97098
O         65.64389       52.34929       -4.43264
H         68.59618       47.24249       -4.44542
H         66.19417       46.21263       -5.61533
H         67.00030       47.42463       -7.71235
H         68.61851       47.58183       -6.96235
H         64.96189       48.18485       -6.03184
H         68.98793       49.74426       -6.04335
H         64.15827       50.28184       -5.03216
H         68.16947       51.83956       -5.04885
H         66.22623       53.09607       -4.23296
N         66.94816       44.69754       -7.74947
C         67.03355       43.44868       -8.50035
C         68.41010       43.19800       -9.10988
O         69.37424       43.02421       -8.37899
C         66.56835       42.22441       -7.64277
C         66.48114       40.95919       -8.54438
C         65.20857       42.51774       -6.97508
C         66.06748       39.68007       -7.81631
H         66.23538       45.36636       -8.07699
H         66.29765       43.53535       -9.33198
H         67.30670       42.03759       -6.83205
H         67.47773       40.76011       -8.98792
H         65.76302       41.13921       -9.37473
H         64.42452       42.69911       -7.74020
H         64.89372       41.67993       -6.32144
H         65.27606       43.40658       -6.31410
H         66.08197       38.83354       -8.53572
H         66.77460       39.45832       -6.99024
H         65.03540       39.75427       -7.41886
N         68.52874       43.03443      -10.46021
C         69.72240       42.49926      -11.10915
C         70.23873       43.35909      -12.25779
O         71.10393       42.87808      -12.97706
C         69.37283       41.09078      -11.62325
O         68.33728       41.15316      -12.57111
H         67.69045       43.16335      -11.04775
H         70.55731       42.36812      -10.38688
H         69.08088       40.46373      -10.74767
H         70.25961       40.60662      -12.08509
H         67.66961       40.46101      -12.32511
N         69.79808       44.63169      -12.49020
C         70.25975       45.42970      -13.62978
C         71.78284       45.51979      -13.65496
O         72.34566       46.00033      -12.68123
C         69.66188       46.84109      -13.56742
H         69.11694       45.04933      -11.83870
H         69.88119       44.95056      -14.55281
H         68.55316       46.78793      -13.57164
H         69.99031       47.36344      -12.64253
H         69.98602       47.43983      -14.44390
N         72.54932       45.05131      -14.69090
C         72.03336       44.46463      -15.93254
C         71.34695       45.52812      -16.79856
O         71.46704       46.69954      -16.46607
C         73.20835       43.83909      -16.70926
H         73.57410       45.10081      -14.56781
H         71.32654       43.65139      -15.66351
H         73.70265       43.06895      -16.07890
H         72.89522       43.34185      -17.64483
H         73.95798       44.61643      -16.97053
N         70.62037       45.25693      -17.92966
C         70.30552       43.92708      -18.45092
C         68.80674       43.65797      -18.50972
O         68.44031       42.53664      -18.83910
C         70.93833       43.70665      -19.85363
C         70.28657       44.46491      -21.03460
C         70.42051       45.95619      -20.96178
O         71.52473       46.47569      -20.94350
O         69.31823       46.73042      -20.93398
H         70.24766       46.07051      -18.43715
H         70.72262       43.15945      -17.77491
H         70.83437       42.62540      -20.09426
H         72.02657       43.92744      -19.81637
H         69.21137       44.19179      -21.10362
H         70.77198       44.13060      -21.97666
N         67.87539       44.61791      -18.24282
C         66.45766       44.35452      -18.35791
H         65.88049       45.27556      -18.12984
H         66.21581       44.03638      -19.39536
H         66.15984       43.55671      -17.64586
H         68.15682       45.57016      -17.97364
Ca        70.98720       42.53229       -4.86023
O         72.35601       43.50432       -8.08220
H         72.29605       44.09657       -8.87353
H         72.16756       42.59935       -8.43675
O         71.44965       45.75862       -5.79701
H         71.07895       46.48711       -5.23823
H         70.91800       45.79115       -6.63171

Ca 1.0



