%chk=apoCaM-CA-Ng.loop4.water3.frame235.chk
%nprocshared=20
%mem=10GB
%nosave
#b3lyp/svp scf=(tight,noincore,xqc) Test 
#IOP(5/87=12) Density=Current Pop=(MK,readradii) iop(6/33=2) iop(6/42=6)

apoCaM-CA-Ng.loop4.water3.frame235 

   -3  1 
C         19.50490       30.34120       79.41143
C         18.83006       31.38639       78.57649
O         18.55108       32.44046       79.11233
H         20.45622       30.75839       79.80961
H         18.85180       30.06925       80.26691
H         19.73643       29.43141       78.82255
N         18.56862       31.18504       77.25188
C         18.00862       32.19975       76.35984
C         18.92826       33.39734       76.24997
O         18.56609       34.48588       76.65104
C         16.49763       32.49924       76.57562
C         15.86948       32.78535       77.92949
O         16.13809       33.85471       78.71198
O         14.96482       32.04927       78.29185
H         18.84140       30.28384       76.83179
H         18.01469       31.78611       75.32453
H         15.97810       31.58406       76.20804
H         16.20837       33.31418       75.87722
N         20.15317       33.22072       75.66984
C         21.21482       34.21027       75.47537
C         20.88338       35.27804       74.42001
O         21.57142       35.28787       73.40748
C         21.74736       34.77236       76.82174
C         23.01661       35.65220       76.63988
C         22.03902       33.62899       77.81717
C         24.23869       34.94141       76.03521
H         20.38091       32.26392       75.35499
H         22.05917       33.62874       75.04412
H         20.96199       35.40993       77.27640
H         23.31526       36.03357       77.63778
H         22.77357       36.52855       76.00274
H         22.43019       34.03471       78.77307
H         21.11420       33.06646       78.05290
H         22.77392       32.90706       77.40448
H         24.04210       34.59332       75.00163
H         25.09030       35.65155       75.98696
H         24.55766       34.08010       76.65678
N         19.87259       36.19355       74.54311
C         19.57653       37.16373       73.49019
C         20.67863       38.22028       73.36388
O         21.25241       38.28946       72.28596
C         18.16010       37.78335       73.62804
C         17.07304       36.76863       73.39012
O         17.00516       36.17925       72.32315
O         16.13915       36.53891       74.33046
H         19.27469       36.19730       75.37282
H         19.53801       36.61988       72.51747
H         18.03664       38.57376       72.85561
H         17.98706       38.23556       74.61711
N         21.06005       39.09171       74.34951
C         20.49975       39.12321       75.69295
C         21.04177       40.25221       76.56379
O         21.88169       41.00783       76.09574
H         21.80321       39.76315       74.10382
H         20.71004       38.14926       76.17275
H         19.43311       39.30709       75.60675
N         20.63508       40.46917       77.85694
C         19.66581       39.69112       78.63358
C         20.11397       38.23647       78.70473
O         19.41519       37.37388       78.19387
C         18.21677       39.91609       78.13729
C         17.17508       39.35671       79.07496
O         15.99296       39.52514       78.82366
O         17.52180       38.68944       80.19440
H         21.08367       41.25313       78.35766
H         19.64496       40.10424       79.66612
H         18.03858       39.48295       77.14100
H         18.04391       41.01301       78.07844
N         21.30163       37.87189       79.27339
C         22.16428       38.77981       80.00903
C         23.45349       39.05238       79.29612
O         23.72943       38.48166       78.25067
H         21.60483       36.89046       79.20300
H         22.36538       38.36331       81.01875
H         21.69058       39.76183       80.16748
N         24.27688       40.00248       79.80964
C         25.52317       40.40024       79.17302
C         26.61304       39.36063       79.40197
O         27.67205       39.49299       78.80276
C         25.95404       41.78683       79.70348
C         24.88509       42.85838       79.37969
C         25.17968       44.21603       79.96497
N         24.30352       45.22944       79.77010
O         26.18943       44.40835       80.62657
H         23.96969       40.49448       80.66330
H         25.34614       40.50411       78.07817
H         26.91599       42.09333       79.23713
H         26.09971       41.71892       80.80478
H         23.89843       42.55179       79.78403
H         24.78965       42.95456       78.27617
H         23.44301       45.08141       79.22138
H         24.47838       46.16158       80.17341
N         26.43912       38.31716       80.27065
C         27.44591       37.29167       80.53012
C         28.01009       37.39196       81.94292
O         28.93988       36.65826       82.24356
C         26.87173       35.87168       80.26162
C         26.48339       35.70839       78.78784
C         25.66678       35.53259       81.16059
H         25.56354       38.25561       80.80632
H         28.31919       37.44196       79.85689
H         27.67297       35.13029       80.47668
H         26.12445       34.67391       78.60168
H         25.67889       36.42032       78.50853
H         27.36519       35.89073       78.13785
H         25.93470       35.62615       82.23408
H         24.79835       36.19074       80.95085
H         25.34346       34.48639       80.97829
N         27.53068       38.29382       82.84852
C         28.13087       38.51826       84.15693
C         27.15126       38.21064       85.27931
O         27.53482       37.51748       86.21207
C         28.61415       39.98167       84.22955
C         29.61975       40.28423       83.13924
N         30.79707       39.61719       83.07085
O         29.36380       41.14085       82.30590
H         26.74474       38.90367       82.59168
H         29.02367       37.87428       84.31308
H         29.08948       40.17708       85.21524
H         27.74274       40.66595       84.12496
H         31.03977       38.89491       83.76388
H         31.47294       39.82312       82.31987
N         25.87744       38.69573       85.26626
C         24.93817       38.55430       86.37691
C         23.71702       37.74078       85.99571
O         23.21204       37.91272       84.89671
C         24.44443       39.95907       86.76531
C         25.55339       40.83221       87.27501
C         26.09007       40.60955       88.55197
C         26.04508       41.88653       86.49071
C         27.09769       41.44167       89.04435
C         27.06479       42.70686       86.97755
C         27.58932       42.49370       88.25706
O         28.55905       43.30659       88.72046
H         25.55848       39.23206       84.44547
H         25.41589       38.08053       87.26319
H         23.65905       39.91257       87.55046
H         23.97876       40.41724       85.86311
H         25.71209       39.80558       89.17231
H         25.64594       42.06743       85.50002
H         27.49099       41.27015       90.03818
H         27.44170       43.51282       86.36127
H         28.93566       43.20267       89.60576
N         23.08172       37.00705       86.96512
C         21.75723       36.38292       86.87544
C         21.73052       35.05144       86.14281
O         21.27574       34.07639       86.72686
C         20.67103       37.32475       86.30448
C         20.62055       38.68246       87.01781
C         19.47575       39.50855       86.50889
O         18.20973       39.07928       86.67272
O         19.68411       40.57700       85.95647
H         23.50791       37.00455       87.90518
H         21.44011       36.16091       87.92183
H         19.68918       36.81416       86.42590
H         20.82196       37.49269       85.21726
H         21.56755       39.22689       86.83336
H         20.50015       38.54155       88.11252
N         22.13622       34.94023       84.84878
C         21.95415       33.73233       84.04632
C         22.70569       32.52619       84.60549
O         22.45595       31.42530       84.13234
C         22.43071       33.97176       82.58907
C         21.80615       35.17926       81.85130
C         20.37532       35.00830       81.43849
O         20.06817       35.13860       80.13180
O         19.49542       34.82438       82.26357
H         22.54003       35.76460       84.40566
H         20.86796       33.49295       84.04889
H         22.28098       33.05755       81.97281
H         23.52338       34.16443       82.64829
H         22.39610       35.33541       80.92459
H         21.89379       36.11415       82.43461
N         23.65236       32.64153       85.58177
C         24.35502       31.49067       86.10804
H         25.09992       31.81488       86.86588
H         23.63572       30.79643       86.59230
H         24.88927       30.96120       85.29052
H         23.90752       33.56504       85.95812
Ca        18.00758       34.99301       79.24161
O         16.57452       36.87196       77.15406
H         15.79816       37.46589       76.99784
H         16.25571       35.97437       76.88591
O         16.26015       33.61802       81.62861
H         17.24872       33.59740       81.59468
H         15.98255       32.80738       81.13274
O         14.94261       36.30520       80.23187
H         15.41603       36.99595       79.70555
H         14.08612       36.73230       80.48453

Ca 1.0



