%chk=apoCaM-CA-Ng.loop1.water3.frame1427.chk
%nprocshared=20
%mem=10GB
%nosave
#b3lyp/svp scf=(tight,noincore,xqc) Test 
#IOP(5/87=12) Density=Current Pop=(MK,readradii) iop(6/33=2) iop(6/42=6)

apoCaM-CA-Ng.loop1.water3.frame1427 

   0  1 
C         70.46114       79.43815       33.95125
C         71.60149       80.36223       33.66435
O         71.51194       81.12580       32.71299
H         69.64793       79.58216       33.20627
H         70.81302       78.38709       33.88994
H         70.06199       79.64246       34.96483
N         72.73031       80.32629       34.43301
C         73.89113       81.16234       34.15500
C         75.02921       80.29479       33.66944
O         76.15124       80.39691       34.14664
C         74.25861       82.02579       35.37440
C         73.10613       82.88657       35.80901
O         72.62969       83.71314       35.04733
O         72.59450       82.74889       37.04700
H         72.78572       79.65079       35.21043
H         73.67513       81.84119       33.31276
H         75.11842       82.68458       35.12111
H         74.55782       81.36367       36.21561
N         74.77986       79.41415       32.66443
C         75.80326       78.62552       32.00060
C         76.75342       79.55622       31.25586
O         77.94462       79.45743       31.51586
C         75.17049       77.54915       31.08361
C         74.34587       76.54982       31.92173
C         73.64174       75.50397       31.05387
C         72.84977       74.52413       31.93413
N         72.12908       73.54754       31.11968
H         73.80679       79.32116       32.33916
H         76.38447       78.05792       32.76396
H         75.97841       76.98749       30.56489
H         74.52491       78.00464       30.30832
H         73.56434       77.08693       32.49990
H         75.02230       76.03945       32.64291
H         74.39187       74.94182       30.45673
H         72.94295       76.02187       30.36074
H         72.11768       75.08586       32.55725
H         73.54985       73.99069       32.61566
H         71.43413       74.03569       30.50908
H         72.79985       73.00394       30.52988
H         71.61872       72.88758       31.75029
N         76.36337       80.53280       30.37468
C         74.99093       80.85878       29.97429
C         74.56077       82.20674       30.54430
O         75.35347       82.87386       31.19252
C         74.84518       80.75049       28.44786
C         75.83304       81.60356       27.71549
O         75.81433       82.94131       27.84610
O         76.67478       81.07453       27.01066
H         77.11114       81.13047       29.98787
H         74.27400       80.14383       30.39010
H         73.81585       81.01663       28.12759
H         75.02123       79.68813       28.16628
N         73.25700       82.60158       30.44341
C         72.71044       83.72737       31.18935
C         73.12612       85.09439       30.71811
O         73.76973       85.23328       29.68969
H         72.59247       81.99552       29.93977
H         72.99236       83.62201       32.25375
H         71.60052       83.69630       31.13578
N         72.76909       86.17033       31.47529
C         73.00561       87.56524       31.11638
C         71.71564       88.37757       31.30481
O         70.80759       87.89092       31.96792
C         74.10917       88.12942       32.03951
C         75.43593       87.48127       31.77082
O         76.05908       86.78473       32.73917
O         75.96793       87.60836       30.67960
H         72.31258       85.98190       32.38309
H         73.33263       87.63038       30.05709
H         73.81597       87.96847       33.09999
H         74.25167       89.21589       31.90621
N         71.53630       89.63669       30.80211
C         72.44402       90.28779       29.87158
C         72.40654       89.60692       28.52662
O         71.56594       88.75227       28.30319
H         70.67660       90.14885       31.05342
H         73.46944       90.30725       30.27508
H         72.13487       91.34310       29.71300
N         73.31265       89.94562       27.57244
C         73.35051       89.32696       26.25020
C         73.48143       87.80620       26.34206
O         74.26528       87.30753       27.13407
C         74.47825       89.96105       25.40015
C         74.54690       89.36620       23.98660
O         75.71429       89.80985       26.04466
H         74.01039       90.66763       27.80838
H         72.39728       89.56334       25.72668
H         74.23839       91.04754       25.31322
H         76.31765       90.50873       25.67898
H         73.57081       89.48550       23.47031
H         75.32534       89.89180       23.39512
H         74.80819       88.28701       24.02044
N         72.73034       87.02880       25.50647
C         72.70431       85.56835       25.41619
C         74.07847       84.98936       25.11628
O         74.94455       85.02457       25.97684
C         72.07584       84.88112       26.66457
C         70.77687       85.56256       27.15849
C         71.83091       83.38147       26.39739
C         69.65870       85.68709       26.12306
H         72.12174       87.51948       24.83341
H         72.03327       85.33254       24.56009
H         72.79283       84.95344       27.50259
H         71.02791       86.57952       27.49929
H         70.39211       85.01203       28.04519
H         71.12229       83.23719       25.55460
H         72.77804       82.86209       26.14201
H         71.41187       82.89033       27.30143
H         69.32328       84.69271       25.76924
H         68.79354       86.20410       26.58985
H         69.98804       86.29868       25.25845
N         74.33423       84.40990       23.91139
C         75.59909       83.75186       23.59574
C         76.39870       84.50780       22.55308
O         77.47816       84.03424       22.22232
C         75.35160       82.28243       23.16515
C         74.51610       82.14449       21.88664
O         74.70468       81.58714       24.19769
H         73.60167       84.43880       23.18860
H         76.25394       83.71720       24.49500
H         76.33604       81.79978       22.95037
H         75.41095       81.29070       24.82643
H         73.49055       82.54151       22.02853
H         74.99919       82.67528       21.03976
H         74.42607       81.07062       21.61843
N         75.97387       85.68560       22.00382
C         76.78116       86.42289       21.03416
C         78.07373       86.84410       21.73628
O         78.01182       87.71350       22.59324
C         75.96196       87.62079       20.47862
C         76.66926       88.35462       19.34344
O         74.73048       87.14490       19.99029
H         75.05925       86.07204       22.28145
H         76.99804       85.73045       20.18986
H         75.78432       88.33578       21.31850
H         74.03443       87.80992       20.23729
H         76.03084       89.19471       18.99292
H         77.63233       88.76975       19.68762
H         76.84295       87.66501       18.48993
N         79.23643       86.14381       21.53311
C         80.43649       86.23609       22.37746
C         80.15010       85.86777       23.83033
O         79.24553       86.41678       24.43637
C         81.16952       87.59490       22.35096
C         82.11077       87.78453       21.14831
C         81.44992       87.99076       19.78796
C         80.62576       89.28172       19.75396
N         80.16850       89.56884       18.39678
H         79.23970       85.41136       20.80685
H         81.17439       85.48601       22.01600
H         81.87895       87.58384       23.21051
H         80.48792       88.45161       22.52519
H         82.79028       86.90490       21.08640
H         82.75225       88.67032       21.35155
H         80.82675       87.11467       19.50948
H         82.27243       88.07930       19.04412
H         81.24885       90.13362       20.10721
H         79.75549       89.18443       20.43497
H         79.60470       88.77087       18.02523
H         79.58006       90.43247       18.41167
H         80.99466       89.73616       17.77648
N         80.99092       85.02115       24.49236
C         80.85839       84.72803       25.91506
C         79.56324       83.96946       26.18445
O         78.72877       84.51797       26.88840
C         82.14342       84.03840       26.43512
C         82.10294       83.61335       27.91169
C         81.89966       84.76317       28.85517
O         82.69213       85.69146       28.87812
O         80.85878       84.75440       29.70866
H         81.79773       84.63098       23.98168
H         80.80647       85.69853       26.46195
H         82.99422       84.74034       26.28577
H         82.38326       83.14877       25.82946
H         83.07257       83.13093       28.15992
H         81.29969       82.86007       28.05939
N         79.25916       82.74534       25.66759
C         80.12871       81.93596       24.84676
H         81.00410       81.59898       25.43168
H         79.59127       81.01434       24.53862
H         80.43363       82.48594       23.93474
H         78.32933       82.36027       25.87197
Ca        76.36504       85.69943       28.50238
O         79.05803       87.27431       28.96201
H         78.98514       86.29225       28.86969
H         78.76208       87.45511       29.88890
O         77.02173       87.45892       26.25529
H         77.04839       87.60338       25.27672
H         77.84498       86.95469       26.46333
O         77.56516       84.66304       30.93184
H         78.06393       85.37605       31.40275
H         78.02689       83.82427       31.18194

Ca 1.0



