%chk=apoCaM-CA-Ng.loop3.water5.frame263.chk
%nprocshared=20
%mem=10GB
%nosave
#b3lyp/svp scf=(tight,noincore,xqc) Test 
#IOP(5/87=12) Density=Current Pop=(MK,readradii) iop(6/33=2) iop(6/42=6)

apoCaM-CA-Ng.loop3.water5.frame263 

   0  1 
C         45.06125       27.70549        9.09434
C         46.54563       27.49068        9.04279
O         47.26496       28.39332        8.64651
H         44.54746       26.94297        8.47190
H         44.71083       27.61272       10.14419
H         44.79305       28.71578        8.71795
N         47.06876       26.29837        9.44456
C         48.49229       25.96158        9.47800
C         49.12740       25.99767        8.08425
O         50.25618       26.45270        7.95019
C         49.24676       26.87739       10.47596
C         48.60308       26.89179       11.83550
O         48.49542       25.75524       12.54862
O         48.17721       27.93812       12.30025
H         46.41122       25.57103        9.76784
H         48.56595       24.91279        9.84343
H         49.26889       27.91722       10.08190
H         50.29789       26.53495       10.58300
N         48.43679       25.56324        6.98802
C         48.93503       25.64510        5.60566
C         49.22380       27.06884        5.09907
O         49.59572       27.17977        3.93767
C         47.91926       24.97796        4.63065
C         48.11595       23.45789        4.52989
C         47.16237       22.85023        3.48716
C         47.55605       21.40741        3.14074
N         46.64127       20.83817        2.15070
H         47.49690       25.16713        7.14463
H         49.90334       25.10429        5.52256
H         48.09971       25.33833        3.59506
H         46.87497       25.26356        4.88973
H         47.98491       22.95743        5.51285
H         49.16101       23.29158        4.18319
H         47.21267       23.43957        2.54466
H         46.12122       22.89217        3.87472
H         47.55158       20.77737        4.05618
H         48.58740       21.40748        2.71880
H         46.96187       19.87462        1.90127
H         45.67539       20.78321        2.54726
H         46.63337       21.42334        1.28322
N         49.13643       28.18992        5.86940
C         49.39404       29.52770        5.35436
C         50.82326       29.92357        5.69096
O         51.20154       29.85964        6.85298
C         48.33054       30.47538        5.93131
C         48.32086       31.80305        5.24181
O         49.39698       32.60189        5.28074
O         47.32700       32.16198        4.63343
H         48.90236       28.12313        6.86154
H         49.26943       29.53415        4.24818
H         48.47784       30.60657        7.02578
H         47.33262       30.00803        5.77362
N         51.69394       30.28449        4.69989
C         53.12205       30.47169        4.91834
C         53.50870       31.58073        5.87316
O         54.68316       31.63573        6.21043
H         51.35218       30.34486        3.72881
H         53.63198       30.66082        3.94788
H         53.52141       29.51804        5.32560
N         52.61409       32.49495        6.34945
C         52.96918       33.51833        7.32954
C         52.17677       33.34640        8.62656
O         52.67040       33.76322        9.66492
C         52.86031       34.91919        6.69499
C         51.40491       35.38190        6.49939
N         50.91015       36.01162        7.72735
O         51.27600       36.25869        5.41353
H         51.65844       32.47763        5.98742
H         54.04041       33.39322        7.60225
H         53.38347       34.87091        5.71535
H         53.41368       35.66976        7.30228
H         51.58681       36.73725        8.06077
H         50.02446       36.52165        7.52227
N         50.95132       32.73344        8.64802
C         50.21019       32.42572        9.85996
C         48.96292       33.26209        9.94966
O         49.09733       34.46838       10.09828
H         50.50261       32.44356        7.77074
H         50.80941       32.62204       10.77440
H         49.96701       31.34122        9.84971
N         47.71552       32.70445        9.87314
C         46.49755       33.49965       10.02645
C         45.77423       33.66869        8.71139
O         46.09714       33.00545        7.73697
C         45.55937       32.87848       11.07992
C         46.18752       32.81116       12.44900
C         46.57028       33.99048       13.10980
C         46.37723       31.57403       13.08823
C         47.13640       33.93383       14.38551
C         46.94286       31.51994       14.36615
C         47.32394       32.69727       15.01896
O         47.86445       32.62938       16.25216
H         47.62461       31.69391        9.68582
H         46.76450       34.53146       10.33874
H         45.26568       31.86154       10.73506
H         44.62957       33.48201       11.16432
H         46.42566       34.95531       12.64067
H         46.08485       30.65127       12.60215
H         47.42468       34.85215       14.88115
H         47.08194       30.56167       14.85082
H         48.13682       33.42105       16.73801
N         44.83435       34.65320        8.61218
C         44.19541       35.04508        7.36564
C         44.77053       36.39474        6.97621
O         45.38562       36.48364        5.92539
C         42.64711       35.06366        7.52154
C         42.08379       33.70175        8.00887
C         41.95438       35.50624        6.21880
C         42.35917       32.51473        7.07943
H         44.63156       35.22027        9.44955
H         44.45594       34.33424        6.55179
H         42.37934       35.80962        8.30280
H         40.98314       33.79648        8.13851
H         42.51156       33.46507        9.00694
H         42.27983       36.52243        5.92525
H         42.19134       34.82272        5.37877
H         40.85296       35.53794        6.36253
H         41.91198       32.67426        6.07771
H         43.44773       32.33453        6.97355
H         41.90616       31.59889        7.51296
N         44.66253       37.48002        7.79256
C         45.30008       38.75914        7.48981
C         44.79236       39.35916        6.19086
O         45.57846       39.97805        5.48831
C         45.09896       39.76251        8.63494
O         45.64096       39.24151        9.81822
H         44.14238       37.38312        8.67857
H         46.39806       38.59746        7.39860
H         44.01291       39.96335        8.77145
H         45.62673       40.71023        8.37974
H         45.48550       39.92619       10.51950
N         43.48782       39.21461        5.81505
C         42.88827       39.81416        4.62349
C         43.47986       39.35075        3.29255
O         43.02137       39.86466        2.27653
C         42.93755       41.34564        4.73729
H         42.85739       38.68306        6.43117
H         41.81178       39.53342        4.60754
H         42.45456       41.66698        5.68462
H         43.97856       41.72735        4.71898
H         42.38271       41.81356        3.89609
N         44.46518       38.40993        3.18119
C         45.07214       38.04638        1.90410
C         44.87861       36.58268        1.56163
O         44.36444       35.81891        2.37099
C         46.56873       38.37344        1.95276
H         44.82712       37.94378        4.02278
H         44.61797       38.63424        1.07649
H         46.71531       39.45134        2.17323
H         47.06489       37.77676        2.74731
H         47.06370       38.14931        0.98478
N         45.27003       36.13811        0.33302
C         45.21083       34.76329       -0.15167
C         43.79599       34.19413       -0.29388
O         43.69258       33.06480       -0.75543
C         46.10549       33.82497        0.69545
C         47.58271       34.28425        0.76784
C         48.44835       33.21234        1.39007
O         49.27421       33.42206        2.44535
O         48.44621       32.10162        0.88248
H         45.67076       36.82806       -0.32296
H         45.63297       34.76165       -1.18274
H         46.07782       32.82701        0.20271
H         45.69386       33.70289        1.71695
H         47.67601       35.24295        1.31953
H         47.95057       34.44213       -0.26960
N         42.66792       34.88757        0.04309
C         41.32945       34.34165       -0.09373
H         40.72923       34.99627       -0.75945
H         41.32397       33.31625       -0.52065
H         40.84341       34.30232        0.90375
H         42.72906       35.84426        0.41124
Ca        50.01681       35.08022        3.85096
O         52.72669       33.93095        3.23364
H         52.25591       33.50645        2.47331
H         52.66685       34.90277        3.05168
O         48.44650       37.56742        5.22597
H         48.39830       37.66338        6.20944
H         48.64144       38.47969        4.89635
O         48.27413       34.80929        6.57604
H         48.39991       34.93532        7.54751
H         47.29665       34.85896        6.45402
O         49.96300       37.30365        2.15067
H         49.68924       36.99920        1.24948
H         49.58000       38.21121        2.24108
O         46.79690       34.76018        3.79184
H         46.95699       35.68545        4.09787
H         45.93062       34.50088        4.19485

Ca 1.0



