%chk=apoCaM-CA-Ng.loop2.water3.frame1313.chk
%nprocshared=20
%mem=10GB
%nosave
#b3lyp/svp scf=(tight,noincore,xqc) Test 
#IOP(5/87=12) Density=Current Pop=(MK,readradii) iop(6/33=2) iop(6/42=6)

apoCaM-CA-Ng.loop2.water3.frame1313 

   -2  1 
C         27.72080       19.69858       83.72993
C         27.53776       20.90451       84.61029
O         28.43693       21.19468       85.38589
H         28.70659       19.22197       83.92162
H         26.92653       18.95096       83.93091
H         27.69030       20.00669       82.66318
N         26.42909       21.69862       84.55794
C         25.28414       21.48230       83.67533
C         23.96001       21.38409       84.43368
O         22.93352       21.26868       83.77714
C         25.24943       22.56692       82.57519
C         25.08945       23.99228       83.03324
O         25.05937       24.88122       82.19903
O         24.98800       24.31325       84.33439
H         26.41802       22.52831       85.16975
H         25.38754       20.52480       83.12436
H         24.41707       22.33302       81.87541
H         26.19810       22.49886       81.99913
N         23.89179       21.35228       85.79968
C         22.62598       21.15587       86.50644
C         21.71661       22.38151       86.48777
O         20.57716       22.25025       86.91370
C         22.89179       20.76453       87.96687
H         24.76298       21.37010       86.34961
H         22.09804       20.29900       86.03053
H         23.42191       21.58357       88.49958
H         21.93830       20.55053       88.49617
H         23.51925       19.84844       88.00588
N         22.16055       23.61233       86.09475
C         21.35247       24.83009       86.18892
C         21.27175       25.56716       84.85326
O         21.89983       25.15402       83.88772
C         21.94896       25.73277       87.29477
C         23.36138       26.14042       86.97359
O         23.59937       26.84358       85.85366
O         24.28810       25.80367       87.69285
H         23.13735       23.71256       85.79650
H         20.31167       24.58049       86.49007
H         21.93209       25.17158       88.25569
H         21.32947       26.64461       87.42864
N         20.48997       26.68138       84.73755
C         20.34591       27.44523       83.50540
C         21.56467       28.27847       83.15605
O         22.53684       28.29548       83.89395
H         19.92150       26.97348       85.54670
H         19.50500       28.16186       83.62601
H         20.08923       26.75568       82.67241
N         21.55139       29.02300       82.01422
C         22.64567       29.88255       81.56602
C         22.13174       31.30339       81.39361
O         21.12317       31.48929       80.72594
C         23.19999       29.36825       80.22021
C         23.83873       27.99874       80.30364
N         24.37541       27.43862       79.19579
O         23.88603       27.39262       81.36342
H         20.71446       28.96810       81.41270
H         23.49236       29.88606       82.28926
H         23.98170       30.07552       79.86435
H         22.38348       29.33964       79.46638
H         24.35162       27.93344       78.29233
H         24.81767       26.50832       79.24156
N         22.80780       32.36267       81.92752
C         22.36988       33.74903       81.78669
C         22.37495       34.47161       83.12039
O         22.74186       33.86690       84.11842
H         23.70071       32.18608       82.41373
H         21.36379       33.80348       81.32279
H         23.09176       34.27906       81.12846
N         22.04629       35.79239       83.24418
C         21.51371       36.63863       82.17617
C         22.59509       37.46663       81.48651
O         22.24802       38.23671       80.60126
C         20.38902       37.54869       82.73701
C         19.23352       36.73429       83.33258
O         20.91674       38.40842       83.71605
H         22.17279       36.22511       84.17318
H         21.05695       36.01538       81.37991
H         19.98134       38.14898       81.88905
H         20.32140       39.20200       83.75802
H         18.79629       36.06552       82.56123
H         19.57832       36.11998       84.19101
H         18.43701       37.42003       83.69302
N         23.92184       37.31530       81.77556
C         24.99457       38.01170       81.06424
C         25.72980       36.98364       80.20618
O         26.02262       35.91355       80.72121
C         25.94223       38.73079       82.06877
C         25.16144       39.86650       82.78306
C         27.19125       39.29014       81.35084
C         25.98012       40.63694       83.82030
H         24.20639       36.62429       82.48467
H         24.55678       38.78628       80.41477
H         26.29655       37.98833       82.81805
H         24.28203       39.43207       83.30494
H         24.78840       40.59388       82.02748
H         26.91331       40.06531       80.60764
H         27.90803       39.72632       82.07347
H         27.74747       38.48066       80.83594
H         26.36205       39.94756       84.60120
H         26.82826       41.17486       83.34966
H         25.33534       41.40360       84.29913
N         26.05062       37.17952       78.88802
C         25.93481       38.43762       78.14709
C         27.27534       38.82635       77.52758
O         28.23800       38.07873       77.62213
C         24.79664       38.34113       77.10825
C         24.98861       37.24878       76.09470
O         24.08558       36.25384       76.00318
O         25.94293       37.26914       75.33434
H         26.45182       36.37696       78.37682
H         25.67944       39.28026       78.80627
H         24.68065       39.30767       76.57342
H         23.84695       38.15751       77.65784
N         27.39357       40.00794       76.86280
C         28.61427       40.45199       76.19590
C         29.72650       40.77385       77.19727
O         29.45153       41.52811       78.12176
C         28.31106       41.74033       75.39475
C         29.49622       42.18903       74.57405
C         29.70814       41.65738       73.29102
C         30.40404       43.13227       75.08601
C         30.80893       42.06594       72.53201
C         31.50769       43.53218       74.32678
C         31.70905       43.00092       73.05009
H         26.55639       40.60714       76.79734
H         28.90586       39.67278       75.46422
H         27.99885       42.55318       76.08797
H         27.45113       41.57039       74.70991
H         29.01982       40.92980       72.87916
H         30.26378       43.54852       76.07572
H         30.96497       41.65631       71.54248
H         32.20825       44.25224       74.72926
H         32.56292       43.31283       72.46285
N         31.02917       40.36835       77.03435
C         31.54639       39.58306       75.92493
C         31.61818       38.09722       76.25676
O         31.93658       37.32683       75.36196
C         32.96476       40.14326       75.76854
C         33.37942       40.32246       77.22307
C         32.11294       40.92849       77.82685
H         30.99024       39.73666       74.98010
H         33.65288       39.52785       75.14968
H         32.89690       41.15667       75.31243
H         33.53884       39.31179       77.65866
H         34.30068       40.91869       77.39384
H         32.02889       40.71187       78.91350
H         32.11770       42.02927       77.66161
N         31.42163       37.62985       77.52694
C         31.58929       36.22684       77.89439
C         33.01198       35.77941       77.56515
O         33.94221       36.36848       78.09830
C         31.35335       36.01532       79.41002
C         29.92523       36.35950       79.85876
C         29.77107       36.15375       81.33785
O         30.52124       36.86734       82.20008
O         28.95683       35.35268       81.76707
H         31.19580       38.30134       78.27234
H         30.83840       35.62551       77.34355
H         32.07860       36.63737       79.98206
H         31.54349       34.94603       79.65436
H         29.20322       35.71819       79.30742
H         29.69044       37.42034       79.64715
N         33.29347       34.76200       76.70150
C         32.28752       33.98699       76.00879
H         31.67568       34.64488       75.35697
H         32.77665       33.22296       75.36786
H         31.63676       33.46517       76.74167
H         34.28240       34.52322       76.52730
Ca        25.63455       27.24915       84.99607
O         27.16720       27.77771       82.31903
H         27.64484       28.19906       83.07742
H         26.64000       28.51394       81.91848
O         25.78996       30.21511       85.20077
H         24.81867       30.04518       85.10795
H         26.04939       29.72957       86.02435
O         28.16809       26.07089       85.86003
H         27.94415       26.92940       86.30081
H         27.52522       25.42119       86.24145

Ca 1.0



