%chk=apoCaM-CA-Ng.loop1.water3.frame1201.chk
%nprocshared=20
%mem=10GB
%nosave
#b3lyp/svp scf=(tight,noincore,xqc) Test 
#IOP(5/87=12) Density=Current Pop=(MK,readradii) iop(6/33=2) iop(6/42=6)

apoCaM-CA-Ng.loop1.water3.frame1201 

   0  1 
C         32.52680       18.68810       72.33080
C         32.55655       19.25028       73.71742
O         31.89651       18.69916       74.58564
H         33.54943       18.38282       72.03091
H         31.85792       17.80059       72.28523
H         32.14246       19.45569       71.62703
N         33.28290       20.37425       73.99192
C         33.30216       21.00100       75.31081
C         32.57075       22.32725       75.26169
O         33.05868       23.33778       75.74779
C         34.73161       21.08162       75.89256
C         35.67882       21.93562       75.08952
O         36.23300       23.02851       75.64794
O         35.97797       21.63055       73.94654
H         33.78928       20.82638       73.21756
H         32.71613       20.38858       76.01871
H         35.15325       20.05636       75.97019
H         34.66446       21.49569       76.92287
N         31.34256       22.36231       74.68034
C         30.47845       23.53220       74.66021
C         29.98204       23.82899       76.06769
O         30.20014       24.94916       76.50944
C         29.34426       23.35222       73.62195
C         29.96282       23.27655       72.21202
C         28.93793       22.96550       71.12290
C         29.62886       22.96420       69.75006
N         28.70200       22.57745       68.68977
H         31.00284       21.50090       74.22848
H         31.05873       24.41449       74.30362
H         28.65535       24.22445       73.65725
H         28.74628       22.44250       73.81959
H         30.73323       22.47660       72.17377
H         30.45998       24.24765       71.99245
H         28.12549       23.72370       71.12998
H         28.49959       21.96270       71.32184
H         30.48393       22.25084       69.75723
H         30.02828       23.98237       69.54106
H         27.88323       23.22700       68.66920
H         29.19952       22.62455       67.77111
H         28.37559       21.59610       68.84629
N         29.38124       22.91783       76.89394
C         29.08801       21.51647       76.58719
C         30.04857       20.59550       77.32275
O         30.91202       21.06619       78.04766
C         27.60078       21.21295       76.84758
C         27.16836       21.57429       78.23495
O         27.72264       20.98204       79.30909
O         26.31276       22.42833       78.38696
H         29.16733       23.23550       77.85243
H         29.25874       21.28898       75.53000
H         27.37380       20.14255       76.66069
H         26.99929       21.80921       76.12543
N         30.01178       19.25296       77.08229
C         31.02426       18.32478       77.55907
C         31.10753       18.17972       79.05243
O         30.33637       18.78972       79.77962
H         29.28995       18.87816       76.44994
H         32.01743       18.64510       77.19260
H         30.81481       17.32123       77.13067
N         32.04685       17.33547       79.56696
C         32.17039       17.01531       80.98671
C         32.71626       15.59057       81.17854
O         33.37157       15.08462       80.27622
C         33.10884       18.02020       81.71013
C         32.74424       19.48722       81.64190
O         31.58078       19.96480       82.13076
O         33.55146       20.27842       81.18130
H         32.63518       16.83057       78.88568
H         31.16096       17.00720       81.40762
H         34.12793       17.90055       81.27921
H         33.18163       17.76432       82.78200
N         32.54118       14.86177       82.32386
C         31.73745       15.27315       83.46462
C         30.26040       15.26083       83.15546
O         29.84492       14.61398       82.20393
H         33.00645       13.94304       82.38943
H         32.06153       16.26389       83.82634
H         31.88758       14.56401       84.30654
N         29.40067       15.96652       83.94675
C         27.95094       16.01547       83.72740
C         27.58879       16.71053       82.37671
O         28.70880       16.92939       81.59751
C         27.25748       16.79278       84.87370
C         27.48670       16.14334       86.24612
O         25.87588       16.85949       84.62661
H         29.80908       16.48998       84.73445
H         27.56946       14.97021       83.73630
H         27.68858       17.82037       84.88999
H         25.52273       17.61202       85.17034
H         28.56279       16.09317       86.50773
H         26.98630       16.74877       87.03124
H         27.06668       15.11644       86.26137
N         26.57071       15.95403       81.62269
C         26.17499       16.46709       80.28380
C         25.63556       17.87510       80.40558
O         26.40743       18.78761       80.66402
C         27.28545       16.39489       79.16397
C         27.87528       14.96537       79.03440
C         26.71674       16.87617       77.80952
C         29.07795       14.87229       78.09260
H         26.81158       14.93934       81.57075
H         25.34614       15.80543       79.94662
H         28.10887       17.09302       79.40475
H         27.08370       14.25800       78.70507
H         28.25994       14.62943       80.01546
H         26.33410       17.91529       77.88437
H         27.49985       16.90241       77.02602
H         25.88983       16.21606       77.47302
H         29.88924       15.53794       78.45338
H         29.46282       13.83080       78.09156
H         28.81643       15.13382       77.04894
N         24.31308       18.12259       80.19897
C         23.73601       19.45805       80.22733
C         22.74672       19.64106       81.36661
O         22.24133       20.74672       81.48883
C         23.11545       19.80643       78.84928
C         22.00447       18.85065       78.40504
O         24.11935       19.79704       77.86832
H         23.68882       17.32559       80.00513
H         24.52761       20.21833       80.41564
H         22.65918       20.82441       78.90652
H         24.51963       20.70357       77.86004
H         21.59070       19.19622       77.43369
H         22.39800       17.82477       78.25018
H         21.18382       18.82310       79.15079
N         22.44249       18.64934       82.26596
C         21.58107       18.91540       83.41957
C         22.29432       19.93180       84.30112
O         23.31482       19.60034       84.88760
C         21.22486       17.62475       84.20136
C         20.43089       16.64104       83.32916
O         22.39262       17.00031       84.67084
H         22.84863       17.71157       82.15154
H         20.62517       19.34359       83.04206
H         20.58328       17.92477       85.06336
H         22.11555       16.37802       85.39349
H         20.15144       15.74746       83.92664
H         19.49908       17.11769       82.95790
H         21.02976       16.29978       82.45896
N         21.88388       21.23576       84.30048
C         22.64476       22.36023       84.84936
C         24.02932       22.47071       84.21463
O         24.47367       21.54781       83.54949
C         22.79175       22.31180       86.38393
C         21.45540       22.38037       87.13269
C         21.71873       22.47170       88.64710
C         20.44739       22.65147       89.49027
N         19.57040       21.48224       89.43681
H         21.02848       21.47565       83.77654
H         22.09308       23.28923       84.57916
H         23.39198       23.19515       86.69502
H         23.34817       21.40071       86.69148
H         20.84738       21.48449       86.88765
H         20.90545       23.29173       86.81017
H         22.35907       23.36229       88.83423
H         22.27193       21.57153       88.99393
H         19.89584       23.55818       89.15627
H         20.75857       22.81261       90.54678
H         19.20511       21.33616       88.46970
H         20.08768       20.63200       89.75864
H         18.75833       21.64223       90.07584
N         24.76495       23.60794       84.36885
C         26.14155       23.75222       83.89467
C         26.32055       23.31046       82.44512
O         27.16362       22.45159       82.22646
C         26.68195       25.18504       84.10235
C         26.78655       25.58435       85.58165
C         27.33470       26.97704       85.71114
O         28.49686       27.18876       86.35715
O         26.72741       27.92417       85.23622
H         24.31904       24.40297       84.84980
H         26.78638       23.07781       84.50483
H         26.04393       25.91868       83.57784
H         27.70583       25.23968       83.66845
H         27.46222       24.87235       86.10337
H         25.79481       25.55452       86.07708
N         25.59742       23.77743       81.38965
C         24.52453       24.74092       81.45308
H         23.71132       24.37401       82.10952
H         24.89451       25.72461       81.78709
H         24.10140       24.87915       80.43485
H         25.80803       23.38690       80.46535
Ca        29.82124       18.65365       82.55317
O         26.89971       19.90669       83.64306
H         26.36098       19.89838       84.47324
H         26.23435       19.80670       82.91945
O         29.49380       21.31476       84.31883
H         29.52948       22.28877       84.49228
H         29.08017       20.93184       85.13304
O         30.21475       22.34489       80.94790
H         30.53365       22.67053       80.06983
H         31.00225       22.43415       81.54095

Ca 1.0



