%chk=apoCaM-CA-Ng.loop1.water3.frame1207.chk
%nprocshared=20
%mem=10GB
%nosave
#b3lyp/svp scf=(tight,noincore,xqc) Test 
#IOP(5/87=12) Density=Current Pop=(MK,readradii) iop(6/33=2) iop(6/42=6)

apoCaM-CA-Ng.loop1.water3.frame1207 

   0  1 
C         31.11945       86.27196       97.68949
C         30.16185       85.81176       98.74397
O         29.15336       85.20965       98.40264
H         32.11196       85.80750       97.85742
H         30.75253       85.98936       96.67888
H         31.21324       87.37773       97.73386
N         30.40074       86.09612      100.05716
C         29.46525       85.74922      101.12116
C         28.85937       87.01668      101.67652
O         28.82943       87.22074      102.88383
C         30.11893       84.85281      102.19887
C         31.22765       85.52512      102.97103
O         32.24547       85.89589      102.40983
O         31.10401       85.70343      104.30068
H         31.24461       86.63786      100.29315
H         28.61559       85.17215      100.69949
H         30.51373       83.93026      101.72334
H         29.32708       84.54922      102.91928
N         28.34143       87.93006      100.81270
C         27.66916       89.13659      101.25682
C         26.41289       88.74184      102.01244
O         26.31057       89.13338      103.16566
C         27.45208       90.13566      100.09227
C         28.82776       90.58574       99.55176
C         28.74131       91.62176       98.42901
C         30.16017       92.00390       97.97002
N         30.12766       92.99005       96.89250
H         28.42301       87.75089       99.80045
H         28.33345       89.67813      101.97014
H         26.91664       91.02951      100.48087
H         26.84606       89.70427       99.27151
H         29.38472       89.70585       99.16529
H         29.41259       91.02835      100.38889
H         28.21279       92.52800       98.79704
H         28.17581       91.19496       97.57254
H         30.69309       91.09364       97.61318
H         30.72993       92.42336       98.82996
H         31.10932       93.21544       96.60985
H         29.61871       92.60165       96.06586
H         29.66068       93.86591       97.22115
N         25.44222       87.91025      101.52743
C         25.35519       87.32091      100.18987
C         25.54390       85.80314      100.23315
O         25.70047       85.23530      101.30590
C         24.05298       87.81840       99.51215
C         22.87509       87.82615      100.46061
O         22.31786       86.68357      100.89058
O         22.44589       88.89071      100.87674
H         24.69245       87.65845      102.19117
H         26.18325       87.65544       99.54585
H         23.83362       87.28125       98.56393
H         24.23995       88.88084       99.24069
N         25.69322       85.11116       99.06602
C         26.16164       83.73059       98.97999
C         25.20568       82.67020       99.48110
O         24.11826       82.97902       99.93124
H         25.60215       85.62534       98.17579
H         27.12587       83.63682       99.52334
H         26.35738       83.49873       97.90988
N         25.57866       81.35867       99.35326
C         24.74964       80.19113       99.70339
C         25.33443       78.91118       99.07647
O         26.48034       78.93240       98.65363
C         24.68575       79.99077      101.23952
C         23.98316       81.08701      101.97690
O         22.80353       81.31323      101.75999
O         24.64395       81.80744      102.90291
H         26.49144       81.20543       98.90286
H         23.75060       80.34289       99.25275
H         25.72414       79.89069      101.62642
H         24.15216       79.05837      101.49505
N         24.64402       77.73511       98.94425
C         23.25796       77.46481       99.29111
C         22.28911       78.29439       98.48496
O         22.40879       78.33861       97.26911
H         25.15467       76.94340       98.51959
H         23.08064       77.56022      100.37906
H         23.04932       76.40244       99.03649
N         21.25274       78.92552       99.10117
C         20.25922       79.72557       98.38879
C         20.88410       81.04990       97.98135
O         21.45920       81.71055       98.83545
C         19.00787       79.95851       99.27039
C         18.33200       78.62513       99.64105
O         18.09293       80.74890       98.55336
H         21.14777       78.79821      100.11997
H         19.89688       79.17093       97.49339
H         19.31381       80.48516      100.20201
H         17.36769       81.00013       99.18281
H         18.01794       78.08096       98.72443
H         19.01035       77.97174      100.22695
H         17.43126       78.81607      100.26199
N         20.79594       81.51028       96.69619
C         21.44316       82.73794       96.22928
C         20.93086       83.92823       97.09063
O         21.87214       84.92182       97.17869
C         23.01423       82.55087       96.18671
C         23.34912       81.25530       95.39417
C         23.75807       83.73813       95.50067
C         24.83488       80.88428       95.38162
H         20.25544       80.96286       96.00947
H         21.15183       82.91333       95.16974
H         23.39261       82.43455       97.22405
H         22.98838       81.35101       94.34612
H         22.82713       80.39686       95.85565
H         23.70197       84.71180       96.00639
H         24.84950       83.57376       95.48085
H         23.39230       83.87393       94.46086
H         25.21048       80.77422       96.42040
H         24.96389       79.92001       94.84864
H         25.45019       81.62922       94.84058
N         19.63891       84.47073       96.62550
C         19.18659       85.70968       97.31543
C         17.66884       85.76338       97.41123
O         17.18499       86.72223       97.99740
C         19.70089       87.05958       96.68061
C         19.31665       87.25673       95.21177
O         21.08705       87.22093       96.79984
H         19.60861       84.57853       95.58841
H         19.53282       85.68624       98.37314
H         19.22542       87.90682       97.23148
H         21.26988       87.47105       97.74437
H         19.65621       88.26087       94.87706
H         19.81024       86.50826       94.56021
H         18.21665       87.19928       95.08022
N         16.84394       84.79820       96.89521
C         15.38910       84.86606       97.05695
C         15.08426       84.81852       98.55204
O         15.28755       83.78397       99.17236
C         14.70007       83.73224       96.26221
C         13.17466       83.82061       96.32386
O         15.09845       83.81816       94.91567
H         17.25185       84.00103       96.38586
H         15.05311       85.83591       96.62365
H         15.02754       82.75725       96.69756
H         15.20097       82.89078       94.57580
H         12.81567       83.74196       97.37054
H         12.82728       84.78188       95.88791
H         12.73279       82.98696       95.73685
N         14.79084       85.98106       99.20856
C         14.87457       86.18110      100.65725
C         16.25540       85.81782      101.20110
O         17.05936       85.22059      100.50183
C         13.77613       85.46867      101.47431
C         12.36297       85.99787      101.18169
C         11.37539       85.66269      102.32136
C         11.17191       84.16800      102.61751
N         10.51570       83.47282      101.51280
H         14.65405       86.83375       98.64385
H         14.76193       87.27473      100.83592
H         13.98173       85.69603      102.54193
H         13.82312       84.36604      101.35031
H         12.01119       85.63741      100.19219
H         12.39979       87.10890      101.14414
H         10.39077       86.12818      102.10066
H         11.76027       86.13745      103.25181
H         10.52793       84.08385      103.52163
H         12.14085       83.67984      102.85879
H          9.58634       83.91274      101.31997
H         11.11117       83.50028      100.65543
H         10.36324       82.47524      101.78649
N         16.60715       86.18815      102.46425
C         17.89224       85.84218      103.06495
C         19.05888       86.28802      102.19093
O         19.85919       85.42868      101.85232
C         18.04390       86.39621      104.50111
C         16.97761       85.85015      105.46568
C         17.20313       86.36784      106.85677
O         17.44027       85.50886      107.86620
O         17.16262       87.56727      107.08196
H         15.93584       86.74763      103.00899
H         17.94447       84.73167      103.15120
H         18.01070       87.50365      104.50632
H         19.04170       86.08517      104.88461
H         17.02516       84.73957      105.47579
H         15.95918       86.15312      105.14739
N         19.25783       87.56307      101.74457
C         18.40903       88.70846      101.98900
H         17.52163       88.48428      102.59957
H         19.00093       89.49413      102.50214
H         18.05583       89.10572      101.01445
H         20.07735       87.73986      101.14905
Ca        22.32422       85.09600       99.36297
O         19.23179       83.06403      100.40124
H         18.25990       82.92110      100.28571
H         19.46785       83.72498       99.70490
O         23.19959       84.54404      102.93804
H         23.91790       85.16143      103.22518
H         23.08242       83.93274      103.70735
O         20.50454       82.56709      103.33088
H         21.24037       82.17773      103.86702
H         19.70885       82.49576      103.91528

Ca 1.0



