%chk=apoCaM-CA-Ng.loop1.water2.frame64.chk
%nprocshared=20
%mem=10GB
%nosave
#b3lyp/svp scf=(tight,noincore,xqc) Test 
#IOP(5/87=12) Density=Current Pop=(MK,readradii) iop(6/33=2) iop(6/42=6)

apoCaM-CA-Ng.loop1.water2.frame64 

   0  1 
C         56.07863       58.47430       92.86405
C         56.33712       58.74923       94.31722
O         56.16503       59.87575       94.76046
H         55.73779       59.39129       92.33910
H         57.01383       58.11459       92.38422
H         55.29814       57.69071       92.76231
N         56.75487       57.73877       95.12673
C         57.01930       57.89588       96.55667
C         58.28462       58.70828       96.87535
O         58.63473       58.76528       98.04508
C         57.10534       56.50397       97.23685
C         58.33623       55.71303       96.88575
O         58.55645       55.36949       95.73595
O         59.19462       55.36099       97.86201
H         56.82273       56.79974       94.70578
H         56.13658       58.38916       97.02091
H         56.19997       55.90914       96.98670
H         57.10383       56.65160       98.33899
N         59.02470       59.34792       95.91804
C         60.31958       59.98171       96.17068
C         60.21788       61.50230       96.14643
O         59.67442       62.01137       95.17521
C         61.30560       59.58596       95.04752
C         61.58367       58.08542       94.88991
C         62.34248       57.49003       96.08427
C         62.87838       56.07609       95.79464
N         61.81484       55.09768       95.57317
H         58.69503       59.36310       94.94540
H         60.72713       59.63996       97.12728
H         62.27546       60.10811       95.20679
H         60.89308       59.94477       94.07739
H         62.22853       57.98250       93.98973
H         60.63586       57.53823       94.70127
H         61.70032       57.48405       96.99095
H         63.22996       58.12882       96.28614
H         63.49008       55.74960       96.66414
H         63.54473       56.10817       94.90384
H         61.23806       55.34992       94.73987
H         62.24697       54.16175       95.39982
H         61.21621       55.03260       96.42424
N         60.76306       62.33908       97.09187
C         61.48085       61.98689       98.32274
C         62.71264       61.12243       98.06584
O         62.70457       59.94711       98.40485
C         60.55759       61.39251       99.39245
C         59.42018       62.29315       99.76899
O         59.22312       63.36483       99.21634
O         58.56595       61.86345      100.70180
H         60.67354       63.35204       96.91154
H         61.83388       62.92375       98.80675
H         61.15814       61.21478      100.30532
H         60.13721       60.42661       99.07295
N         63.85482       61.63039       97.53064
C         64.02095       63.04733       97.25935
C         65.40465       63.40518       96.76059
O         66.22529       62.52364       96.54930
H         64.64252       60.98027       97.38796
H         63.86719       63.58927       98.20966
H         63.26977       63.37587       96.51046
N         65.75921       64.69784       96.51878
C         64.88680       65.84595       96.74377
C         64.66277       66.08257       98.23608
O         65.63012       66.25784       98.96464
C         65.51364       67.10045       96.09759
C         64.60675       68.29711       96.18331
O         63.49951       68.26828       95.66919
O         65.01958       69.41357       96.81209
H         66.70005       64.86462       96.12611
H         63.92256       65.67133       96.21669
H         65.70249       66.89577       95.02062
H         66.48873       67.33013       96.58055
N         63.39826       66.16489       98.74210
C         63.10804       66.52887      100.12282
C         63.40946       65.45200      101.14514
O         63.83623       64.35993      100.79934
H         62.59963       66.06633       98.09746
H         62.02133       66.74356      100.21125
H         63.65718       67.46237      100.37568
N         63.17621       65.72624      102.46199
C         63.37115       64.77537      103.55392
C         62.39154       63.61496      103.44533
O         61.18963       63.84134      103.40750
C         63.20829       65.48929      104.92459
C         63.46910       64.54481      106.10760
O         61.92062       66.04070      105.03875
H         62.85282       66.67789      102.69732
H         64.41991       64.40303      103.51849
H         63.97105       66.30361      104.95794
H         61.98337       66.78709      105.69081
H         63.39503       65.10687      107.06273
H         62.72147       63.72466      106.13342
H         64.48622       64.10450      106.03703
N         62.85186       62.33314      103.44580
C         61.98091       61.15912      103.44485
C         61.12249       61.17797      104.70355
O         61.66715       61.18764      105.79884
C         62.82952       59.84309      103.34096
C         63.39847       59.59958      101.91235
C         62.00274       58.59313      103.70741
C         64.29288       60.69653      101.34048
H         63.87131       62.19250      103.49607
H         61.30857       61.18632      102.56404
H         63.66400       59.89508      104.07613
H         62.55657       59.44267      101.20347
H         64.00128       58.66500      101.93210
H         62.63057       57.67870      103.63927
H         61.64543       58.64905      104.75393
H         61.12887       58.48135      103.03140
H         64.67172       60.37700      100.34728
H         63.71996       61.63211      101.18261
H         65.16262       60.87781      102.00502
N         59.76008       61.14413      104.59970
C         58.85606       61.10354      105.74810
C         58.11781       59.76634      105.85339
O         57.42039       59.57954      106.83996
C         57.88503       62.31252      105.72527
C         56.98383       62.35707      104.48493
O         58.61806       63.50934      105.78564
H         59.34582       61.11023      103.65708
H         59.44395       61.18041      106.68924
H         57.20748       62.24808      106.61016
H         58.82782       63.67333      106.74259
H         56.29145       63.22256      104.56070
H         57.58062       62.48962      103.55941
H         56.37881       61.43030      104.40115
N         58.27418       58.77249      104.92490
C         57.75489       57.40693      105.03296
C         56.23290       57.33072      105.03038
O         55.59365       57.83283      105.94305
C         58.33543       56.66608      106.26453
C         59.86451       56.72466      106.28652
O         57.95117       55.31442      106.22882
H         58.86103       58.95016      104.09853
H         58.12524       56.85561      104.13862
H         57.98209       57.13332      107.21228
H         57.04464       55.25476      106.62856
H         60.28636       56.28339      105.35797
H         60.21047       57.77434      106.38313
H         60.25117       56.15935      107.16011
N         55.59542       56.65885      104.02920
C         54.15276       56.47080      103.95090
C         53.60222       57.24437      102.76711
O         52.68526       58.02617      102.97584
C         53.72021       54.97274      103.94947
C         54.43435       53.99823      102.98272
C         55.75835       53.40903      103.52408
C         55.51740       52.34795      104.61925
N         56.77837       51.78402      105.09982
H         56.16487       56.27634      103.26175
H         53.64659       56.90023      104.84557
H         52.63625       54.97564      103.69845
H         53.78717       54.56560      104.97764
H         54.58561       54.48678      102.00597
H         53.76771       53.13044      102.78493
H         56.43721       54.19731      103.89910
H         56.27024       52.89240      102.68368
H         54.89710       51.52794      104.19076
H         54.96930       52.77474      105.48395
H         57.33750       52.52421      105.58213
H         56.57139       51.01910      105.78284
H         57.32777       51.38473      104.30467
N         54.13078       57.13180      101.51530
C         53.67453       57.92716      100.38351
C         53.17485       57.00462       99.29621
O         53.72362       56.97560       98.20265
C         54.81641       58.86742       99.93353
C         55.27078       59.84168      101.04600
C         54.22296       60.86616      101.46226
O         54.48290       62.18837      101.39824
O         53.15337       60.50990      101.92270
H         54.93034       56.50497      101.35213
H         52.80458       58.55836      100.64244
H         54.50705       59.45511       99.04178
H         55.69107       58.24278       99.64359
H         56.16874       60.36379      100.66571
H         55.59349       59.26361      101.93784
N         52.08045       56.23326       99.54793
C         51.47721       55.34392       98.57874
H         50.43249       55.67051       98.38978
H         52.02320       55.33623       97.61276
H         51.46075       54.31281       98.98828
H         51.63055       56.29514      100.47431
Ca        56.55068       62.78918      100.84056
O         56.78785       61.94330       97.73134
H         57.34401       61.90045       96.91377
H         57.07701       61.16372       98.26848
O         57.67517       65.52889      101.97103
H         56.76755       65.80028      102.25968
H         58.21419       65.54093      102.80152

Ca 1.0



