%chk=apoCaM-CA-Ng.loop3.water5.frame80.chk
%nprocshared=20
%mem=10GB
%nosave
#b3lyp/svp scf=(tight,noincore,xqc) Test 
#IOP(5/87=12) Density=Current Pop=(MK,readradii) iop(6/33=2) iop(6/42=6)

apoCaM-CA-Ng.loop3.water5.frame80 

   0  1 
C         63.89298       61.23475       27.70008
C         65.24522       61.17985       27.05850
O         65.32281       61.28837       25.84579
H         63.10239       61.38189       26.93180
H         63.69632       60.28202       28.23405
H         63.85282       62.07955       28.41802
N         66.36502       60.99405       27.81960
C         67.72900       60.93745       27.28692
C         67.95656       59.74362       26.35553
O         69.03001       59.65264       25.77547
C         68.10718       62.26912       26.58894
C         67.99412       63.47768       27.48571
O         67.59259       63.36851       28.76795
O         68.27992       64.57863       27.04372
H         66.24910       60.89993       28.84035
H         68.43725       60.81066       28.13651
H         67.47577       62.43234       25.69243
H         69.16370       62.20831       26.24795
N         67.01523       58.76817       26.18750
C         67.18183       57.62847       25.28656
C         66.99160       58.01786       23.82265
O         67.03816       57.13154       22.97939
C         66.11624       56.54746       25.60593
C         66.13947       56.01344       27.04874
C         67.45440       55.30371       27.40777
C         67.40397       54.63793       28.79324
N         67.29808       55.61090       29.88281
H         66.15398       58.80986       26.74573
H         68.18814       57.18033       25.42756
H         66.24869       55.68117       24.92011
H         65.10574       56.97557       25.41804
H         65.30874       55.27988       27.13772
H         65.93663       56.83839       27.75866
H         68.30898       56.01234       27.37587
H         67.63276       54.50415       26.65623
H         68.33973       54.05292       28.93113
H         66.54856       53.92757       28.83501
H         66.41238       56.15942       29.81691
H         67.29167       55.09679       30.79308
H         68.12063       56.25671       29.86735
N         66.71154       59.29726       23.44494
C         66.27855       59.66583       22.10593
C         67.31522       60.54269       21.42625
O         68.28464       60.94640       22.05500
C         64.88460       60.31477       22.28761
C         64.22603       60.89203       21.07951
O         63.06472       60.40086       20.64159
O         64.65840       61.90451       20.56733
H         66.72664       60.05509       24.13801
H         66.17310       58.76361       21.46444
H         64.94582       61.13796       23.03131
H         64.21314       59.53705       22.71484
N         67.19859       60.81496       20.09566
C         68.16016       61.59633       19.34092
C         68.27044       62.99987       19.87722
O         69.36716       63.42378       20.21154
H         66.40056       60.42330       19.57292
H         67.82343       61.64932       18.28243
H         69.15072       61.09114       19.35854
N         67.15562       63.77114       20.00198
C         67.15799       65.13971       20.49390
C         66.47946       65.25534       21.86446
O         66.41211       66.35934       22.38696
C         66.45728       66.02012       19.44085
C         66.60584       67.48849       19.73974
N         65.52463       68.25454       20.00998
O         67.71998       67.99077       19.74081
H         66.25247       63.36968       19.73089
H         68.20545       65.49268       20.61605
H         65.38415       65.72900       19.39224
H         66.90246       65.83522       18.43844
H         64.57837       67.84744       20.02696
H         65.63745       69.25742       20.21831
N         66.00775       64.16528       22.54024
C         65.45639       64.24361       23.88548
C         64.11657       64.94379       23.97980
O         63.55416       65.35483       22.97451
H         66.11370       63.22615       22.13700
H         66.19383       64.74795       24.54661
H         65.30303       63.21745       24.26927
N         63.55550       65.11413       25.21338
C         62.27163       65.77495       25.45198
C         61.10317       64.92002       24.93818
O         61.31332       63.81968       24.44798
C         62.17357       66.13963       26.96542
C         60.95029       66.93514       27.37791
C         60.64893       68.17781       26.78195
C         60.08316       66.42565       28.35990
C         59.48637       68.87122       27.14099
C         58.93159       67.12793       28.72577
C         58.62454       68.34937       28.11135
O         57.50688       69.02705       28.44415
H         64.10141       64.79443       26.02926
H         62.27382       66.73464       24.89001
H         63.06068       66.75920       27.22186
H         62.23493       65.20111       27.55803
H         61.29343       68.59600       26.01975
H         60.29322       65.47892       28.84066
H         59.25010       69.81235       26.65952
H         58.27479       66.71675       29.48205
H         56.88365       68.69806       29.10812
N         59.83887       65.42330       24.97325
C         58.65341       64.82879       24.37518
C         58.20326       65.80342       23.30140
O         58.11379       65.41627       22.14515
C         57.52743       64.59739       25.43641
C         58.02205       63.64124       26.55314
C         56.25620       64.03771       24.75742
C         56.98468       63.36675       27.64890
H         59.70598       66.34327       25.38301
H         58.89114       63.84694       23.90616
H         57.26312       65.57230       25.90417
H         58.90752       64.09610       27.04405
H         58.33102       62.66919       26.11132
H         55.89524       64.71495       23.95896
H         56.45464       63.04073       24.31056
H         55.41787       63.95162       25.47807
H         56.10924       62.81391       27.24986
H         57.43817       62.72845       28.43616
H         56.64256       64.31585       28.11280
N         57.96640       67.11384       23.61701
C         57.56513       68.11488       22.64312
C         56.11736       67.92036       22.26033
O         55.76751       68.22320       21.12893
C         57.78120       69.52963       23.19571
O         59.13709       69.69598       23.51393
H         58.09450       67.43032       24.58885
H         58.21720       68.02529       21.74407
H         57.15635       69.67436       24.10593
H         57.49519       70.27325       22.41851
H         59.21416       70.57686       23.96293
N         55.23239       67.35593       23.14235
C         53.84349       67.03484       22.82966
C         53.72033       66.00072       21.71380
O         52.59551       65.71310       21.31987
C         53.05943       68.31584       22.50758
H         55.55262       67.11936       24.09272
H         53.37154       66.59460       23.73653
H         51.98314       68.07954       22.36642
H         53.14445       69.03017       23.35439
H         53.42630       68.80915       21.58564
N         54.81150       65.39482       21.15631
C         54.74991       64.48811       20.02424
C         55.33455       63.13265       20.35747
O         55.87211       62.93954       21.44235
C         55.53455       65.11410       18.86605
H         55.75043       65.59111       21.51821
H         53.69607       64.33715       19.70448
H         55.10261       66.10491       18.61176
H         56.59870       65.25943       19.15877
H         55.50091       64.47353       17.96135
N         55.23239       62.12749       19.44417
C         55.75203       60.77997       19.61887
C         55.20464       60.14765       20.88669
O         55.97098       59.66823       21.71204
C         57.29035       60.77069       19.57274
C         57.83598       61.30160       18.23547
C         59.32158       61.17687       18.24546
O         60.10932       62.25959       18.16090
O         59.83537       60.08106       18.41333
H         54.72592       62.31691       18.56489
H         55.39841       60.16194       18.76386
H         57.63061       59.71787       19.69914
H         57.70818       61.37179       20.41142
H         57.54982       62.36705       18.09950
H         57.43511       60.70493       17.38934
N         53.86138       60.13120       21.10386
C         53.25291       59.54773       22.28157
H         52.51754       58.77875       21.96773
H         53.99711       59.06549       22.95014
H         52.72858       60.34051       22.85436
H         53.23643       60.56985       20.41138
Ca        61.98275       61.77054       19.24462
O         61.16216       63.80650       21.33137
H         60.74553       62.95625       21.62098
H         62.13359       63.65846       21.45349
O         62.54361       65.12869       18.58284
H         62.58841       65.59887       19.45310
H         61.57525       65.04208       18.39524
O         62.35686       62.77223       15.98133
H         63.00672       62.18012       15.52553
H         61.56323       62.77307       15.38997
O         64.77000       63.00076       17.62780
H         65.58310       62.58808       17.24281
H         64.90464       63.97401       17.50668
O         63.54299       59.91069       17.40920
H         63.32999       59.20567       16.74766
H         64.42222       59.64836       17.78129

Ca 1.0



