%chk=apoCaM-CA-Ng.loop2.water3.frame1024.chk
%nprocshared=20
%mem=10GB
%nosave
#b3lyp/svp scf=(tight,noincore,xqc) Test 
#IOP(5/87=12) Density=Current Pop=(MK,readradii) iop(6/33=2) iop(6/42=6)

apoCaM-CA-Ng.loop2.water3.frame1024 

   -2  1 
C         38.73881       62.07113       62.58552
C         37.43691       61.40364       62.92974
O         37.20261       60.30468       62.44830
H         39.33988       61.42879       61.90711
H         38.55721       63.04217       62.08259
H         39.32460       62.23062       63.51622
N         36.53583       61.95423       63.79255
C         36.69148       63.25075       64.45040
C         35.41025       64.07473       64.26664
O         34.83404       64.00514       63.18972
C         37.14146       62.99360       65.91254
C         36.14550       62.13483       66.63463
O         36.42333       60.84485       66.89601
O         35.01871       62.54941       66.84808
H         35.70944       61.38948       64.03668
H         37.50179       63.83197       63.96868
H         37.34042       63.93176       66.46904
H         38.10234       62.43636       65.86241
N         34.91069       64.88373       65.25285
C         33.68286       65.66693       65.14151
C         32.47601       64.75829       64.94864
O         31.76834       64.87968       63.95801
C         33.80935       66.75183       64.05900
H         35.41637       64.96768       66.14412
H         33.53012       66.21189       66.10101
H         33.93138       66.31898       63.04625
H         32.89917       67.39033       64.05898
H         34.68299       67.40223       64.27865
N         32.16757       63.83994       65.90934
C         31.00265       62.94849       65.84100
C         30.75281       62.24244       67.17669
O         31.52620       62.40002       68.11148
C         31.15242       61.91446       64.69139
C         32.34706       61.02997       64.90479
O         33.26601       61.04389       64.10411
O         32.44205       60.27487       66.01628
H         32.77271       63.82445       66.74252
H         30.10327       63.57429       65.65069
H         31.25772       62.44490       63.72116
H         30.24528       61.28055       64.61579
N         29.65091       61.45794       67.34244
C         29.32960       60.81266       68.60635
C         30.28996       59.70412       68.98762
O         31.19354       59.37778       68.23346
H         28.98037       61.36077       66.56528
H         28.31918       60.35574       68.53179
H         29.30078       61.58315       69.40635
N         30.11135       59.05798       70.17295
C         30.90784       57.92017       70.61901
C         29.98725       56.73732       70.81841
O         29.02509       56.84725       71.56782
C         31.63603       58.23741       71.93704
C         32.70748       59.28073       71.75306
N         32.69979       60.42318       72.47671
O         33.61153       59.07649       70.95691
H         29.34541       59.37594       70.78755
H         31.68009       57.64453       69.86656
H         32.14204       57.31414       72.29587
H         30.90293       58.54997       72.71283
H         31.95550       60.61177       73.16276
H         33.45262       61.11713       72.36093
N         30.22920       55.55784       70.18027
C         29.35556       54.40433       70.30768
C         28.00567       54.64590       69.65189
O         27.79552       55.71758       69.10124
H         31.07376       55.46151       69.59631
H         29.23295       54.15763       71.38556
H         29.83242       53.53867       69.79931
N         27.01803       53.70429       69.63768
C         27.12385       52.37762       70.23384
C         26.99666       51.32445       69.14042
O         26.25321       50.36271       69.28206
C         26.06317       52.23884       71.36102
C         26.36756       53.20469       72.51130
O         24.77296       52.53283       70.88234
H         26.13297       53.94180       69.16253
H         28.12499       52.21643       70.68238
H         26.08501       51.21120       71.78949
H         24.52081       51.83122       70.23070
H         27.36623       52.98850       72.94617
H         26.34920       54.25897       72.15995
H         25.60404       53.09306       73.31026
N         27.71237       51.47066       67.99132
C         27.66863       50.52201       66.88262
C         28.58483       49.34913       67.24306
O         29.67482       49.62709       67.72574
C         28.12319       51.22013       65.56014
C         27.21490       52.45074       65.25989
C         28.07525       50.22688       64.37846
C         27.68813       53.29081       64.07253
H         28.30154       52.31129       67.89210
H         26.61274       50.23142       66.71623
H         29.17078       51.57018       65.69097
H         27.20220       53.13890       66.12973
H         26.16773       52.11898       65.08258
H         28.44733       50.68588       63.44212
H         28.72366       49.34948       64.57116
H         27.03469       49.87405       64.20710
H         28.72288       53.65270       64.25103
H         27.65306       52.71962       63.12534
H         27.02190       54.17199       63.95677
N         28.28960       48.02564       67.05664
C         27.13203       47.49401       66.34219
C         27.58804       46.72346       65.10834
O         28.75349       46.36797       65.00788
C         26.23862       46.64236       67.27238
C         26.87972       45.41151       67.87254
O         28.02891       45.09175       67.61342
O         26.16000       44.64384       68.71242
H         28.99035       47.34602       67.38867
H         26.50446       48.31550       65.96671
H         25.33993       46.31400       66.70716
H         25.89816       47.29138       68.10822
N         26.71878       46.51295       64.07896
C         27.10507       45.83649       62.84092
C         26.00911       46.02214       61.79585
O         24.86734       45.72227       62.11304
C         27.29769       44.32083       63.08175
C         27.84740       43.66981       61.83465
C         27.00078       42.99256       60.93986
C         29.21709       43.77609       61.53829
C         27.51811       42.44257       59.76210
C         29.73189       43.21212       60.36772
C         28.88235       42.55051       59.47753
H         25.76983       46.90655       64.16497
H         28.05700       46.27669       62.47838
H         26.31466       43.87776       63.35768
H         27.98745       44.10639       63.92570
H         25.93959       42.91295       61.13976
H         29.88391       44.29584       62.21516
H         26.86070       41.93761       59.06618
H         30.78836       43.29489       60.14763
H         29.28108       42.12447       58.56590
N         26.25029       46.45680       60.51670
C         27.54850       46.72155       59.91033
C         28.09557       48.09109       60.28277
O         27.55453       48.73943       61.16878
C         27.24027       46.58301       58.41097
C         25.85570       47.17455       58.31707
C         25.18398       46.55490       59.53595
H         28.31048       45.95199       60.14960
H         27.98894       47.00388       57.70957
H         27.14435       45.49531       58.18063
H         25.95430       48.27212       58.47551
H         25.32074       46.99431       57.36085
H         24.34183       47.19785       59.87019
H         24.81915       45.52621       59.31936
N         29.20367       48.56938       59.64338
C         29.86786       49.83330       59.95649
C         31.15408       49.94604       59.12070
O         31.26431       50.84917       58.30293
C         28.91268       51.04023       59.71175
C         29.48830       52.36655       60.24761
C         28.54343       53.50689       59.99232
O         28.90222       54.46351       59.32409
O         27.29942       53.48652       60.50799
H         29.61451       47.98038       58.90341
H         30.14732       49.82750       61.03283
H         27.95283       50.88484       60.24086
H         28.68451       51.12123       58.62569
H         30.46310       52.59934       59.77303
H         29.65381       52.28075       61.34331
N         32.19002       49.06526       59.24123
C         32.21484       47.94905       60.16288
H         32.10252       48.30904       61.20564
H         31.41903       47.21686       59.92624
H         33.18519       47.41581       60.07310
H         33.02247       49.20578       58.64695
Ca        34.51031       59.71289       66.66891
O         33.87403       62.43443       69.98202
H         33.06133       62.70542       70.47912
H         34.62297       62.66180       70.58833
O         33.67704       56.96449       67.59058
H         33.48917       57.18038       66.64230
H         34.65400       57.09665       67.68685
O         36.17878       59.90172       69.78252
H         37.05589       59.46181       69.65151
H         36.18286       60.18796       70.73044

Ca 1.0



