%chk=apoCaM-CA-Ng.loop1.water4.frame986.chk
%nprocshared=20
%mem=10GB
%nosave
#b3lyp/svp scf=(tight,noincore,xqc) Test 
#IOP(5/87=12) Density=Current Pop=(MK,readradii) iop(6/33=2) iop(6/42=6)

apoCaM-CA-Ng.loop1.water4.frame986 

   0  1 
C         56.14266       77.07418       61.12984
C         55.76459       76.43473       62.43531
O         54.78116       75.70970       62.48108
H         57.16461       76.74845       60.84007
H         55.43820       76.77729       60.32315
H         56.12879       78.17916       61.23021
N         56.53467       76.64359       63.54044
C         56.28053       76.02007       64.83772
C         56.14639       77.07064       65.93296
O         57.05714       77.85939       66.13611
C         57.36240       74.96527       65.15459
C         58.79797       75.42404       65.19195
O         59.76024       74.52069       65.45472
O         59.11302       76.58085       64.97267
H         57.36086       77.25072       63.43692
H         55.33015       75.44375       64.80065
H         57.29604       74.17372       64.37672
H         57.11771       74.50177       66.13440
N         54.99756       77.15257       66.66169
C         54.75137       78.19268       67.65618
C         55.63652       78.03764       68.88562
O         55.47575       77.08257       69.63287
C         53.25603       78.17995       68.02034
C         52.81673       79.29530       68.97587
C         51.28321       79.31911       69.03000
C         50.74495       80.40024       69.96873
N         49.28473       80.46012       69.88784
H         54.23687       76.49058       66.44240
H         54.95282       79.17305       67.16891
H         52.97131       77.19437       68.45320
H         52.70519       78.30826       67.06189
H         53.17298       80.27738       68.59552
H         53.24860       79.12212       69.98643
H         50.89829       78.32849       69.35877
H         50.90470       79.52339       68.00353
H         51.16357       81.39037       69.68259
H         51.05538       80.17096       71.01221
H         48.92981       81.18179       70.55495
H         48.99398       80.72738       68.91838
H         48.86754       79.53257       70.13243
N         56.60929       78.95957       69.13586
C         57.49796       78.94040       70.29810
C         57.64453       80.35651       70.87803
O         57.27880       81.30823       70.20208
C         58.86091       78.34515       69.85715
C         59.43086       79.04323       68.65357
O         59.75935       80.21744       68.70685
O         59.52957       78.36958       67.49223
H         56.76695       79.68746       68.42555
H         57.07075       78.27860       71.08053
H         58.68150       77.28313       69.58072
H         59.61895       78.34245       70.65995
N         58.18959       80.61623       72.10472
C         58.53250       79.60544       73.08853
C         57.29980       78.98979       73.70193
O         56.19305       79.45163       73.45448
H         58.33236       81.60197       72.37643
H         59.08903       80.07830       73.92743
H         59.19465       78.83941       72.65823
N         57.43145       77.93260       74.54644
C         56.30852       77.37617       75.28622
C         55.81323       78.38072       76.32195
O         54.62490       78.67014       76.33866
C         56.61730       75.96504       75.85698
C         57.82543       75.74658       76.73729
O         58.70461       76.72174       77.01949
O         58.03751       74.62497       77.16908
H         58.36917       77.52377       74.66899
H         55.46969       77.17800       74.57828
H         56.75207       75.28535       74.98609
H         55.71528       75.62092       76.40881
N         56.67648       78.99418       77.18339
C         56.28275       79.97430       78.18331
C         55.82145       81.31001       77.62441
O         55.51413       82.17724       78.42880
H         57.67385       78.76295       77.14471
H         57.16800       80.19454       78.81959
H         55.49647       79.53861       78.83664
N         55.74631       81.56418       76.28471
C         55.30084       82.83825       75.72390
C         56.40238       83.40049       74.82617
O         57.45211       82.78309       74.70844
C         53.95637       82.61729       74.97854
C         52.90536       82.01093       75.91939
O         53.45541       83.83942       74.50423
H         55.99554       80.83090       75.61203
H         55.11404       83.58081       76.52974
H         54.13478       81.92219       74.12544
H         52.78673       83.63113       73.80132
H         52.73642       82.68052       76.79074
H         51.94418       81.88056       75.38009
H         53.22599       81.01572       76.28807
N         56.24175       84.58508       74.16898
C         57.30085       85.18866       73.36792
C         58.38257       85.64122       74.32796
O         59.53474       85.25786       74.17395
C         56.76413       86.37577       72.50614
C         55.52392       85.99299       71.64374
C         57.88197       86.93771       71.60428
C         55.72378       84.81086       70.68941
H         55.36439       85.10343       74.27874
H         57.70330       84.43578       72.65402
H         56.43448       87.19668       73.18075
H         55.21128       86.87997       71.05053
H         54.66816       85.74399       72.30337
H         57.50061       87.78993       71.00206
H         58.73289       87.30854       72.21211
H         58.26879       86.16086       70.91154
H         56.52279       85.01696       69.94985
H         55.96433       83.88427       71.25055
H         54.77918       84.62983       70.13383
N         58.03486       86.40174       75.40504
C         58.94324       86.74573       76.49080
C         58.61493       88.12618       77.04307
O         57.68916       88.76518       76.55533
C         58.90484       85.63834       77.58009
C         57.51513       85.45255       78.19585
O         59.30989       84.41227       77.02770
H         57.03315       86.61759       75.53364
H         59.98584       86.79974       76.10429
H         59.59611       85.89903       78.41311
H         60.29230       84.46781       76.89163
H         56.77886       85.15130       77.42289
H         57.55377       84.65122       78.96435
H         57.17154       86.38918       78.68156
N         59.36463       88.66770       78.04373
C         59.18048       90.02914       78.53004
C         60.42473       90.80463       78.15552
O         60.33166       91.71611       77.34662
C         58.83363       90.05237       80.04607
C         58.56360       91.47650       80.53938
O         59.85171       89.49238       80.83470
H         60.14465       88.11509       78.43205
H         58.32135       90.50818       78.00815
H         57.88961       89.47953       80.20434
H         59.73726       88.50724       80.80946
H         57.72216       91.92750       79.97152
H         58.28833       91.45714       81.61565
H         59.46511       92.11464       80.41975
N         61.63568       90.46238       78.67758
C         62.89395       91.05849       78.25147
C         63.91611       89.96269       77.98873
O         63.66664       88.81314       78.32606
C         63.34518       92.11344       79.27434
C         63.54236       91.55049       80.68904
C         63.77123       92.68175       81.69546
C         63.93899       92.12226       83.11287
N         64.08346       93.20261       84.08692
H         61.67877       89.72071       79.38730
H         62.73822       91.59077       77.28702
H         62.54194       92.88356       79.31037
H         64.27778       92.61104       78.93010
H         64.39951       90.84292       80.69183
H         62.62784       91.00855       81.00980
H         62.88692       93.35801       81.67954
H         64.67304       93.26693       81.41288
H         64.83748       91.46711       83.14639
H         63.04767       91.51138       83.38121
H         64.20940       92.78900       85.03876
H         64.91796       93.78861       83.85559
H         63.22308       93.79804       84.08972
N         65.06419       90.23522       77.30688
C         65.99994       89.18723       76.90235
C         65.27541       88.05728       76.16540
O         65.42068       86.92544       76.60635
C         67.17327       89.76843       76.07663
C         68.17549       88.67922       75.65281
C         69.37313       89.26875       74.96602
O         69.24196       89.91332       73.93767
O         70.60406       89.07299       75.47672
H         65.23984       91.20701       77.00902
H         66.45326       88.75137       77.82256
H         67.70026       90.51492       76.71149
H         66.80714       90.28852       75.16793
H         67.68553       87.96504       74.95577
H         68.51667       88.11823       76.54954
N         64.44935       88.22527       75.08997
C         64.09123       89.48300       74.46718
H         62.99497       89.63368       74.56774
H         64.59132       90.35847       74.90725
H         64.34983       89.44498       73.38994
H         63.99896       87.38405       74.69698
Ca        60.02698       79.40058       65.54520
O         60.13391       82.46677       65.69569
H         60.19726       82.66586       66.66365
H         61.05675       82.57936       65.35649
O         62.00499       76.90553       66.10573
H         61.77415       76.50970       65.22809
H         61.38900       76.47115       66.74771
O         62.67184       80.00906       66.63384
H         62.90738       80.93931       66.39171
H         62.89889       79.48007       65.82809
O         57.63130       81.22926       66.57854
H         56.78426       81.46263       66.12352
H         57.69202       81.86525       67.33533

Ca 1.0



