%chk=apoCaM-CA-Ng.loop2.water5.frame383.chk
%nprocshared=20
%mem=10GB
%nosave
#b3lyp/svp scf=(tight,noincore,xqc) Test 
#IOP(5/87=12) Density=Current Pop=(MK,readradii) iop(6/33=2) iop(6/42=6)

apoCaM-CA-Ng.loop2.water5.frame383 

   -2  1 
C          8.72918       94.33516       17.32682
C          7.46492       93.74978       17.88175
O          6.74935       94.44181       18.59214
H          9.59927       93.74287       17.67321
H          8.69410       94.31554       16.21758
H          8.85826       95.38665       17.66258
N          7.11519       92.46776       17.57989
C          5.88304       91.85734       18.06835
C          5.88939       91.76159       19.58544
O          6.71319       91.04450       20.13474
C          5.63288       90.46887       17.42792
C          6.65139       89.41302       17.78606
O          6.26047       88.30193       18.43920
O          7.82561       89.54531       17.48111
H          7.73240       91.93751       16.94782
H          5.04103       92.50688       17.73980
H          5.60469       90.57690       16.32227
H          4.63180       90.11404       17.75776
N          5.00784       92.48980       20.32693
C          4.95837       92.44701       21.78405
C          5.44612       93.75958       22.36229
O          5.80977       94.65076       21.60664
C          3.52734       92.12329       22.22652
H          4.35915       93.12981       19.84231
H          5.63065       91.65580       22.18117
H          3.21349       91.14891       21.79561
H          3.45519       92.04434       23.33085
H          2.82531       92.91158       21.87941
N          5.49944       93.94124       23.71252
C          6.03870       95.14448       24.33319
C          4.90136       95.92185       24.96743
O          4.93127       96.21668       26.15534
C          7.12046       94.73247       25.35328
C          8.22790       93.94214       24.71437
O          9.04252       94.52869       23.82258
O          8.43251       92.78642       25.04964
H          5.14973       93.19632       24.33409
H          6.49511       95.81510       23.57198
H          6.64519       94.10652       26.14148
H          7.55969       95.62952       25.84076
N          3.82480       96.25607       24.20134
C          2.64425       96.91477       24.72488
C          2.78819       98.40904       24.91342
O          1.81373       99.00392       25.35107
H          3.79566       95.93934       23.22077
H          2.33551       96.42150       25.67322
H          1.81594       96.77707       23.99741
N          3.92629       99.09819       24.59405
C          4.03772      100.54739       24.76299
C          4.33341      101.28421       23.46584
O          4.32062      102.50843       23.50914
C          5.12193      100.85714       25.80657
C          4.72879      100.30659       27.15328
N          5.45393       99.32975       27.74283
O          3.73581      100.74573       27.71513
H          4.74893       98.58998       24.23910
H          3.07611      100.97273       25.12703
H          5.26280      101.95521       25.91487
H          6.08513      100.42085       25.46164
H          6.28511       98.93547       27.27970
H          5.17219       98.95567       28.66090
N          4.58473      100.65734       22.27648
C          4.79017      101.41602       21.04896
C          6.00167      102.32329       21.11366
O          6.80356      102.20937       22.03113
H          4.59543       99.62933       22.21564
H          3.88457      102.03661       20.87921
H          4.90664      100.73312       20.17954
N          6.16710      103.29431       20.16852
C          7.29060      104.23177       20.20655
C          8.59935      103.56111       19.82439
O          9.63634      104.20128       19.96558
C          7.04260      105.48667       19.32577
C          6.99139      105.20643       17.81571
O          5.88721      106.16721       19.75035
H          5.43770      103.39794       19.44965
H          7.37591      104.60613       21.25186
H          7.89703      106.18232       19.48258
H          5.09458      105.65041       19.45298
H          7.95572      104.78307       17.47395
H          6.17328      104.50409       17.55713
H          6.83038      106.15789       17.26694
N          8.64085      102.28865       19.33332
C          9.87217      101.59438       18.99062
C         10.05280      100.46012       19.98417
O          9.09645      100.10744       20.66971
C          9.79717      101.10038       17.50455
C          9.40930      102.23200       16.51366
C         11.07567      100.39142       17.02463
C         10.39312      103.40253       16.44110
H          7.76522      101.75641       19.21085
H         10.73968      102.27854       19.11738
H          8.97313      100.35397       17.43970
H          8.41023      102.62635       16.79035
H          9.30407      101.80119       15.49359
H         10.95820      100.06950       15.96736
H         11.95892      101.05883       17.09914
H         11.26486       99.47080       17.60882
H         10.49213      103.90199       17.42479
H         11.39100      103.06626       16.09530
H         10.01257      104.15185       15.71473
N         11.26199       99.86704       20.15752
C         11.48497       98.76991       21.08667
C         12.55084       99.13372       22.13414
O         12.98061       98.26549       22.87584
C         11.86669       97.53947       20.23708
C         11.69865       96.22751       20.95205
O         11.24314       96.17747       22.21826
O         11.92605       95.18709       20.35585
H         12.06660      100.19595       19.59782
H         10.54261       98.51795       21.62127
H         12.90054       97.65770       19.84308
H         11.17187       97.48407       19.36971
N         13.00915      100.41917       22.25615
C         14.09305      100.82732       23.15035
C         15.40361      100.20262       22.68606
O         15.75464      100.41137       21.53408
C         14.26343      102.37219       23.08058
C         15.53256      102.84327       23.76257
C         16.59568      103.32471       22.97584
C         15.69234      102.76936       25.15591
C         17.80025      103.70639       23.56739
C         16.90117      103.16058       25.74636
C         17.95482      103.62329       24.95178
H         12.57928      101.15302       21.67811
H         13.85130      100.55797       24.19971
H         13.37525      102.89461       23.49837
H         14.32523      102.64969       22.00504
H         16.50228      103.38110       21.89828
H         14.88936      102.40117       25.78180
H         18.61581      104.05804       22.94847
H         17.02685      103.09736       26.81928
H         18.89277      103.91521       25.40615
N         16.23626       99.50956       23.52643
C         17.57732       99.10446       23.13244
C         17.58625       97.87213       22.24334
O         18.65671       97.49356       21.78723
C         18.27096       98.87021       24.47849
C         17.14067       98.30491       25.31652
C         15.97660       99.21251       24.92099
H         18.10321       99.93141       22.60495
H         19.20192       98.26577       24.43736
H         18.52138       99.86457       24.91727
H         16.93316       97.27754       24.94091
H         17.32953       98.25182       26.41001
H         15.01674       98.67660       25.08533
H         15.99392      100.15738       25.49945
N         16.44690       97.17915       21.97017
C         16.41904       95.98493       21.13161
C         16.48262       96.32959       19.64842
O         16.54817       95.40480       18.85062
C         15.11573       95.21289       21.40315
C         15.04192       94.70920       22.85342
C         13.64446       94.29365       23.18812
O         13.04336       94.89250       24.06658
O         13.01235       93.30659       22.52615
H         15.56833       97.47799       22.41704
H         17.27414       95.32419       21.39888
H         15.00233       94.34113       20.72165
H         14.28793       95.92167       21.20600
H         15.31188       95.52539       23.55726
H         15.75782       93.87515       23.01040
N         16.42727       97.61829       19.19638
C         16.42925       97.96970       17.78996
H         15.49009       98.51174       17.54886
H         17.29198       98.63363       17.57592
H         16.49505       97.08140       17.12745
H         16.35225       98.40027       19.85988
Ca        10.80439       93.41733       22.95434
O          8.88816       91.11163       22.39992
H          8.04433       90.64292       22.61835
H          9.04454       90.91336       21.44280
O         11.91657       90.44543       21.81629
H         12.64031       90.07097       22.37817
H         11.56421       89.66898       21.31286
O          8.79240       94.15521       20.78592
H          8.13780       93.46383       21.05696
H          8.36077       95.01533       21.01846
O         10.74171       92.05036       19.46235
H         10.66902       91.09170       19.22588
H         11.39865       92.41554       18.81795
O         11.66789       91.39592       25.06303
H         11.65162       92.33092       25.38926
H         10.75317       91.23640       24.71882

Ca 1.0



