%chk=apoCaM-CA-Ng.loop1.water3.frame1469.chk
%nprocshared=20
%mem=10GB
%nosave
#b3lyp/svp scf=(tight,noincore,xqc) Test 
#IOP(5/87=12) Density=Current Pop=(MK,readradii) iop(6/33=2) iop(6/42=6)

apoCaM-CA-Ng.loop1.water3.frame1469 

   0  1 
C         47.78969       65.30431       67.52138
C         47.49706       66.74819       67.22041
O         48.39183       67.45663       66.78694
H         48.59383       65.23516       68.28337
H         46.89254       64.77970       67.91573
H         48.11636       64.78714       66.59551
N         46.24959       67.24800       67.42739
C         45.85484       68.63468       67.18432
C         45.35977       69.30280       68.46882
O         44.82363       70.40027       68.40423
C         44.77395       68.64329       66.08163
C         43.55506       67.82409       66.42454
O         43.25111       66.86435       65.73378
O         42.79095       68.14447       67.48609
H         45.52418       66.60500       67.78360
H         46.70544       69.24172       66.80625
H         45.23306       68.23337       65.15447
H         44.46041       69.68695       65.86669
N         45.50424       68.68389       69.67276
C         44.95262       69.16657       70.93421
C         45.50106       70.53635       71.33209
O         44.67848       71.40285       71.59422
C         45.10381       68.09233       72.04533
C         44.38774       66.78921       71.60838
C         44.43523       65.65995       72.63661
C         43.79437       64.40028       72.02205
N         43.79065       63.28221       72.96037
H         46.02440       67.80005       69.69703
H         43.85102       69.28051       70.80715
H         44.62755       68.46663       72.97831
H         46.17312       67.88507       72.25995
H         44.85432       66.38933       70.68802
H         43.32289       67.01577       71.37993
H         43.88689       65.96687       73.55315
H         45.49180       65.43702       72.90122
H         44.36578       64.10476       71.11185
H         42.74790       64.62157       71.71366
H         43.21408       63.52293       73.79830
H         43.37156       62.44826       72.48762
H         44.76851       63.05140       73.24949
N         46.82449       70.88514       71.35318
C         47.94694       70.03330       70.97357
C         48.48848       70.47599       69.61679
O         48.02002       71.46838       69.07277
C         49.03270       70.06578       72.07187
C         49.62699       71.43927       72.21031
O         50.25425       71.99148       71.15487
O         49.51653       72.05834       73.25286
H         47.04137       71.86977       71.57906
H         47.62025       68.98675       70.86789
H         49.85119       69.35716       71.82516
H         48.58105       69.74346       73.03666
N         49.45264       69.74928       68.98712
C         49.92186       70.06567       67.64608
C         50.85235       71.25731       67.56865
O         51.21297       71.83415       68.58143
H         49.79043       68.88174       69.43013
H         49.04382       70.21557       66.98164
H         50.49954       69.20081       67.25713
N         51.28539       71.66713       66.34236
C         52.26365       72.73263       66.10826
C         53.26072       72.29963       65.01655
O         53.01697       71.28698       64.37512
C         51.49086       73.99499       65.66644
C         50.70453       74.56644       66.81077
O         49.48949       74.65161       66.74516
O         51.34757       75.01075       67.90887
H         50.86477       71.20967       65.51858
H         52.83072       72.94148       67.04122
H         50.82285       73.73717       64.81549
H         52.14902       74.80225       65.31490
N         54.40225       72.99241       64.70079
C         54.93625       74.12316       65.44351
C         55.44284       73.69236       66.79275
O         55.58865       72.50282       67.02823
H         54.96139       72.66347       63.89790
H         54.19305       74.92660       65.54008
H         55.80034       74.56453       64.90123
N         55.72360       74.62205       67.74435
C         56.19098       74.26692       69.08145
C         55.20154       73.32163       69.74481
O         54.01313       73.60365       69.74101
C         56.39967       75.52079       69.96699
C         57.49047       76.44153       69.40046
O         56.79131       75.10697       71.25260
H         55.55903       75.61288       67.51149
H         57.17808       73.75919       69.00042
H         55.43345       76.07459       70.02993
H         56.63869       75.87373       71.86479
H         57.62510       77.31781       70.06918
H         58.45678       75.89642       69.33654
H         57.22771       76.82193       68.39353
N         55.66033       72.18737       70.35362
C         54.85905       71.18439       71.05305
C         54.02999       71.82168       72.15514
O         53.05119       72.48323       71.85043
C         53.96508       70.34376       70.08835
C         54.80821       69.73346       68.94107
C         53.22246       69.23660       70.86965
C         53.97947       68.98844       67.88989
H         56.67929       72.02822       70.35842
H         55.58105       70.47519       71.51786
H         53.21634       71.02015       69.63824
H         55.58340       69.05111       69.34979
H         55.32624       70.55129       68.41141
H         52.52470       68.67630       70.21626
H         53.95003       68.52439       71.31544
H         52.60264       69.66455       71.68365
H         54.64267       68.65961       67.06260
H         53.50255       68.08235       68.31407
H         53.19897       69.65391       67.46686
N         54.33063       71.62067       73.46582
C         53.47917       72.10504       74.54774
C         54.16885       73.09536       75.46988
O         53.49887       73.54176       76.38969
C         52.90797       70.90407       75.34367
C         53.98758       70.03517       75.99724
O         52.14009       70.09449       74.49156
H         55.17185       71.07406       73.69962
H         52.60153       72.65611       74.14017
H         52.26262       71.28943       76.16965
H         51.22813       70.48437       74.46887
H         53.50458       69.22590       76.58350
H         54.63292       69.55455       75.23361
H         54.61891       70.63920       76.68164
N         55.46958       73.50029       75.31795
C         56.07745       74.45261       76.25054
C         55.33561       75.78265       76.13981
O         55.48166       76.47221       75.14058
C         57.60076       74.57984       76.00520
C         58.27582       75.47275       77.05243
O         58.17301       73.29739       76.07076
H         56.03862       73.11336       74.55164
H         55.94913       74.02873       77.27230
H         57.76015       75.00717       74.98719
H         59.05510       73.34721       75.61755
H         58.12788       75.05036       78.06979
H         59.36749       75.52461       76.85087
H         57.86558       76.50281       77.02122
N         54.40318       76.10604       77.08646
C         53.41265       77.18229       77.00141
C         52.52039       77.05754       75.77196
O         52.89644       76.41176       74.80578
C         54.01128       78.59562       77.08729
C         54.78448       78.81859       78.39230
C         55.20322       80.28789       78.52592
C         55.99204       80.52490       79.81907
N         56.34202       81.93763       79.96428
H         54.30772       75.47607       77.89766
H         52.74291       77.05430       77.88267
H         53.16700       79.32092       77.05735
H         54.67096       78.79697       76.21585
H         55.67974       78.15960       78.40810
H         54.13279       78.56048       79.25649
H         54.28913       80.92303       78.53800
H         55.82916       80.58128       77.65524
H         56.92134       79.91341       79.79940
H         55.38136       80.21015       80.69471
H         56.89928       82.06433       80.83974
H         56.91426       82.25465       79.14828
H         55.47298       82.51637       80.03115
N         51.28042       77.62886       75.76440
C         50.37982       77.56042       74.61426
C         50.22217       76.14073       74.09485
O         50.49959       75.95615       72.92145
C         48.98562       78.16340       74.90075
C         49.02278       79.67235       75.16424
C         47.63241       80.18600       75.40991
O         47.14169       81.01763       74.66339
O         46.91912       79.72865       76.45739
H         50.96118       78.10692       76.62015
H         50.82901       78.15741       73.78658
H         48.50115       77.64601       75.75251
H         48.34716       78.00262       74.00202
H         49.46008       80.18321       74.27770
H         49.64651       79.90610       76.05055
N         49.80857       75.07141       74.83283
C         49.48858       75.06225       76.24278
H         48.43580       74.73650       76.37266
H         50.15290       74.33427       76.75417
H         49.62341       76.03796       76.73447
H         49.73416       74.16727       74.35184
Ca        50.97508       74.11563       70.97300
O         48.28807       75.21557       69.98627
H         49.00577       75.42432       69.33774
H         48.03907       76.09500       70.36627
O         51.62055       77.22877       70.32567
H         51.67908       77.60810       69.41317
H         50.84614       77.68892       70.73680
O         53.53645       75.33369       72.12310
H         54.33215       74.85802       72.47002
H         53.73897       76.29241       72.25887

Ca 1.0



