%chk=apoCaM-CA-Ng.loop3.water3.frame948.chk
%nprocshared=20
%mem=10GB
%nosave
#b3lyp/svp scf=(tight,noincore,xqc) Test 
#IOP(5/87=12) Density=Current Pop=(MK,readradii) iop(6/33=2) iop(6/42=6)

apoCaM-CA-Ng.loop3.water3.frame948 

   0  1 
C         75.56405      117.90656       55.13538
C         75.24129      119.33624       54.81867
O         74.92700      119.64564       53.67773
H         76.59845      117.83106       55.52901
H         74.85425      117.53473       55.90600
H         75.46857      117.26835       54.23175
N         75.25676      120.26441       55.81259
C         74.83994      121.64984       55.60806
C         75.85827      122.40813       54.74516
O         76.95349      121.90605       54.54295
C         74.62779      122.29587       57.00646
C         73.76728      123.52774       57.08978
O         73.53419      124.07434       58.29526
O         73.20974      123.99364       56.11529
H         75.49062      119.94092       56.76526
H         73.86436      121.61080       55.09934
H         75.61823      122.48234       57.47445
H         74.08756      121.56356       57.64456
N         75.56133      123.63560       54.22354
C         76.51765      124.48086       53.50382
C         76.85378      125.73822       54.30283
O         77.84969      126.37983       53.98439
C         75.98557      124.87040       52.10113
C         74.64220      125.63734       52.16257
C         74.20632      126.26135       50.82991
C         73.95034      125.24096       49.71411
N         73.48238      125.91510       48.50249
H         74.62041      124.00014       54.35943
H         77.47519      123.93055       53.37929
H         75.86076      123.95478       51.48520
H         76.74994      125.51385       51.61154
H         74.73628      126.48249       52.87649
H         73.83804      124.96438       52.52573
H         74.97801      126.98959       50.49901
H         73.26227      126.82013       51.01658
H         73.17905      124.51293       50.04506
H         74.88665      124.68928       49.48297
H         73.32664      125.20554       47.75092
H         72.57993      126.40956       48.69199
H         74.19728      126.60496       48.17467
N         76.05979      126.17667       55.31875
C         76.32450      127.34474       56.14470
C         76.37015      126.97569       57.63157
O         76.58003      127.85905       58.44729
C         75.28475      128.44035       55.81925
C         73.85737      127.96704       55.87412
O         73.16468      127.99994       54.86942
O         73.33450      127.50041       57.01696
H         75.18331      125.67955       55.52217
H         77.31974      127.78337       55.90697
H         75.48289      128.78954       54.78117
H         75.42218      129.31070       56.49565
N         76.25084      125.67786       58.05106
C         76.41300      125.24203       59.42740
C         75.31215      125.62578       60.39907
O         75.42850      125.19369       61.53622
H         76.13962      124.92631       57.36130
H         77.39399      125.59616       59.81138
H         76.44117      124.12903       59.42676
N         74.23153      126.40267       60.07014
C         73.17569      126.71535       61.03815
C         71.78359      126.36065       60.52592
O         71.60864      126.07262       59.35203
C         73.22329      128.20035       61.48040
C         72.67761      129.19447       60.47444
N         73.29390      129.43711       59.29625
O         71.65514      129.80641       60.74766
H         74.16056      126.78051       59.12474
H         73.34746      126.11623       61.95768
H         74.25572      128.47983       61.78202
H         72.59142      128.28536       62.39199
H         74.17461      128.97253       59.04798
H         72.89297      130.11720       58.63263
N         70.73259      126.40126       61.39285
C         69.33562      126.22869       61.02855
C         69.02708      124.91361       60.35090
O         69.44305      123.86952       60.83277
H         70.92725      126.60332       62.38487
H         69.01214      127.07658       60.38693
H         68.73426      126.27621       61.96228
N         68.20289      124.89921       59.26233
C         67.77229      123.67682       58.58699
C         68.90110      123.05001       57.78370
O         70.00072      123.58154       57.75866
C         66.54766      123.97548       57.68191
C         65.32265      124.33960       58.49112
C         64.71627      125.59983       58.35942
C         64.75870      123.39901       59.37328
C         63.57043      125.91286       59.10071
C         63.61576      123.71381       60.11178
C         63.01672      124.96917       59.97927
O         61.91068      125.25399       60.69609
H         67.80402      125.79748       58.94685
H         67.45820      122.93062       59.34807
H         66.26382      123.08773       57.08120
H         66.81062      124.78292       56.96845
H         65.12641      126.33912       57.68325
H         65.19786      122.41575       59.48544
H         63.11170      126.88711       58.98944
H         63.19303      122.97769       60.78452
H         61.45964      126.10764       60.63140
N         68.67749      121.87301       57.12568
C         69.65962      121.09729       56.37270
C         70.17798      121.85887       55.15828
O         70.85836      122.85817       55.32779
C         70.82771      120.61689       57.29082
C         71.82776      119.68238       56.55811
C         70.30019      119.95031       58.57517
C         71.25279      118.34899       56.07389
H         67.73843      121.45336       57.19363
H         69.12392      120.19384       56.01138
H         71.40927      121.50751       57.61400
H         72.67432      119.46111       57.24435
H         72.23989      120.20803       55.67695
H         69.66899      119.06847       58.34383
H         71.14855      119.63597       59.21949
H         69.68741      120.66391       59.16498
H         70.44364      118.50484       55.33291
H         72.05856      117.76716       55.57888
H         70.87161      117.74531       56.92205
N         69.90787      121.42832       53.89020
C         70.48657      122.05939       52.70627
C         69.77384      121.59809       51.44687
O         70.35841      120.91049       50.62025
C         72.00333      121.78568       52.64410
O         72.55926      122.39886       51.51332
H         69.28033      120.61917       53.76359
H         70.33793      123.15935       52.75445
H         72.18212      120.68671       52.60732
H         72.48154      122.21603       53.54139
H         73.52135      122.15419       51.50928
N         68.50610      122.03841       51.20923
C         67.77741      121.76359       49.97519
C         67.65098      123.05268       49.16025
O         67.98936      124.10378       49.68468
C         66.41026      121.17611       50.34577
H         68.06499      122.66057       51.90477
H         68.34613      121.03635       49.35832
H         65.79180      120.95348       49.46078
H         66.54936      120.23329       50.91665
H         65.84430      121.89219       50.97955
N         67.23847      123.09237       47.85420
C         66.86745      121.94424       47.03452
C         65.45424      122.11357       46.48954
O         64.95411      123.23270       46.50288
C         67.86346      121.81880       45.87778
H         67.22523      124.01811       47.39428
H         66.92333      121.01828       47.62796
H         67.62526      120.95580       45.22414
H         67.85192      122.74091       45.25747
H         68.88836      121.67809       46.28305
N         64.69045      121.07497       46.03874
C         65.05429      119.66614       46.13874
C         64.49173      119.07564       47.42762
O         64.78514      117.91673       47.69927
C         64.54782      118.85464       44.91655
C         65.31357      119.07778       43.59655
C         65.11018      120.39272       42.89218
O         64.25646      121.32416       43.35122
O         65.70463      120.59910       41.84631
H         63.71427      121.28754       45.77907
H         66.15083      119.53554       46.20522
H         63.45289      118.98814       44.77316
H         64.71757      117.78043       45.15207
H         64.98349      118.28989       42.88345
H         66.39732      118.92621       43.78944
N         63.71067      119.79650       48.28615
C         63.21184      119.27574       49.54213
H         62.10292      119.29646       49.53491
H         63.54750      118.23561       49.73523
H         63.57669      119.91651       50.37245
H         63.45038      120.76948       48.06942
Ca        71.06780      125.89045       56.32533
O         70.13367      128.64544       57.09631
H         69.50157      128.47407       56.35359
H         70.97257      128.91836       56.64704
O         68.43375      125.77475       55.28925
H         67.95125      126.59944       55.03165
H         68.26431      125.13779       54.55100
O         71.16834      125.78262       53.28809
H         71.37137      125.31014       52.44259
H         71.19318      126.74223       53.04671

Ca 1.0



