%chk=apoCaM-CA-Ng.loop4.water5.frame19.chk
%nprocshared=20
%mem=10GB
%nosave
#b3lyp/svp scf=(tight,noincore,xqc) Test 
#IOP(5/87=12) Density=Current Pop=(MK,readradii) iop(6/33=2) iop(6/42=6)

apoCaM-CA-Ng.loop4.water5.frame19 

   -3  1 
C         92.79614       43.39494       44.23564
C         94.26738       43.64345       44.10890
O         94.64507       44.78590       43.91630
H         92.28484       43.71292       43.30348
H         92.58028       42.32204       44.41784
H         92.39967       43.98717       45.08789
N         95.16377       42.62474       44.24392
C         96.61245       42.78854       44.19059
C         97.07179       43.79110       45.23574
O         97.70766       44.76896       44.88880
C         97.12769       43.00983       42.73729
C         96.63637       44.22864       42.00068
O         95.96502       44.09911       40.98904
O         96.97781       45.46363       42.40782
H         94.80650       41.67987       44.45048
H         97.07104       41.81895       44.48842
H         96.82511       42.11369       42.15142
H         98.23925       43.03762       42.74275
N         96.74574       43.58133       46.55028
C         97.12668       44.39289       47.71342
C         98.60054       44.19339       48.06572
O         98.87653       43.63862       49.12065
C         96.69461       45.88585       47.59121
C         97.03605       46.72117       48.85370
C         95.19341       46.00368       47.27227
C         96.36146       46.26706       50.15263
H         96.15732       42.75934       46.75611
H         96.55823       43.97018       48.57129
H         97.24999       46.35536       46.75371
H         96.73843       47.77436       48.66164
H         98.13086       46.70707       49.01797
H         94.96047       45.51769       46.30783
H         94.57145       45.52009       48.05301
H         94.90096       47.07135       47.19156
H         96.65811       46.95056       50.97619
H         95.25780       46.29992       50.06558
H         96.67846       45.24286       50.43312
N         99.59895       44.57993       47.22811
C        101.00941       44.31392       47.46948
C        101.55653       45.06324       48.69055
O        102.10162       44.38895       49.55248
C        101.82827       44.60191       46.18884
C        103.24816       44.12256       46.30724
O        103.50208       42.81888       46.53517
O        104.17620       44.90273       46.17067
H         99.35808       45.04303       46.35063
H        101.11318       43.21707       47.63854
H        101.80322       45.67817       45.93195
H        101.36888       44.04903       45.33975
N        101.50035       46.42261       48.87309
C        100.81373       47.36721       48.00751
C        101.77258       48.32406       47.35221
O        102.76958       47.85654       46.82076
H        101.95492       46.81471       49.71302
H        100.04617       47.89957       48.60035
H        100.29381       46.86338       47.18762
N        101.54592       49.66795       47.24493
C        100.36919       50.40552       47.74057
C         99.07947       49.87997       47.09373
O         99.19898       49.07196       46.18379
C        100.55648       51.90106       47.37001
C        101.82804       52.47081       47.93608
O        102.01852       52.50999       49.26780
O        102.69391       52.89935       47.18883
H        102.27050       50.19598       46.73236
H        100.31360       50.28317       48.84315
H         99.73573       52.53219       47.73362
H        100.57966       51.98997       46.25891
N         97.80334       50.25816       47.42672
C         97.34123       51.17403       48.46445
C         97.37691       50.61792       49.87022
O         97.93453       49.55781       50.11234
H         97.04752       49.85505       46.85010
H         96.25897       51.34457       48.26937
H         97.80641       52.16976       48.40291
N         96.70868       51.29946       50.84757
C         96.56929       50.85948       52.23205
C         95.11127       50.58403       52.59837
O         94.87702       50.23591       53.74764
C         97.14493       51.94368       53.16718
C         98.66530       52.07005       53.01061
C         99.21240       53.17635       53.87475
N         99.89955       54.20338       53.32236
O         99.04236       53.14300       55.08481
H         96.24240       52.18422       50.58892
H         97.11739       49.90786       52.41019
H         96.93811       51.67906       54.22842
H         96.64710       52.91597       52.95085
H         98.91878       52.26588       51.94760
H         99.14057       51.11075       53.31129
H        100.06270       54.24441       52.30563
H        100.27735       54.95852       53.91308
N         94.08623       50.67506       51.69415
C         92.69393       50.37340       52.03999
C         91.77026       51.57037       51.84218
O         90.58979       51.43448       52.13790
C         92.19358       49.12281       51.26785
C         93.08084       47.90967       51.58549
C         92.11399       49.33761       49.74984
H         94.28872       50.93485       50.71962
H         92.61406       50.12062       53.12019
H         91.16588       48.88608       51.62499
H         93.10090       47.72416       52.68087
H         92.68853       46.99871       51.08654
H         94.12084       48.08347       51.23785
H         91.43167       50.17956       49.50913
H         93.11218       49.54260       49.31127
H         91.70181       48.42360       49.27462
N         92.22940       52.77966       51.40373
C         91.38989       53.97069       51.31430
C         91.38827       54.61310       49.93088
O         90.70234       55.61536       49.78187
C         91.84629       55.00170       52.38117
C         93.26312       55.51576       52.20009
N         93.49845       56.82901       51.97186
O         94.20917       54.74758       52.28508
H         93.22687       52.88340       51.18298
H         90.33353       53.71587       51.55069
H         91.76937       54.54004       53.38946
H         91.13900       55.85933       52.36288
H         92.72424       57.50491       51.90683
H         94.46427       57.17301       51.86062
N         92.16097       54.15783       48.89621
C         92.35578       54.94843       47.68577
C         92.46190       54.09810       46.42640
O         93.26684       53.18020       46.38360
C         93.63506       55.78605       47.88059
C         93.96319       56.63857       46.67748
C         95.20142       56.48800       46.03388
C         93.04365       57.58139       46.18374
C         95.51234       57.25628       44.91060
C         93.35494       58.34572       45.05588
C         94.58784       58.18599       44.41517
O         94.87347       58.92929       43.32785
H         92.78306       53.35127       49.04179
H         91.52334       55.67220       47.55614
H         94.48310       55.10384       48.11157
H         93.49279       56.45286       48.75960
H         95.92699       55.77141       46.39846
H         92.08283       57.72170       46.66197
H         96.47084       57.12430       44.42560
H         92.63550       59.06171       44.67888
H         95.71533       58.84745       42.85750
N         91.71258       54.43096       45.33102
C         91.82786       53.86504       43.98627
C         91.60324       52.36751       43.91681
O         92.11370       51.75443       42.98965
C         93.12039       54.31524       43.23337
C         94.45520       53.73675       43.75130
C         95.63368       54.07983       42.87695
O         96.85825       53.63791       43.22131
O         95.50150       54.74322       41.86003
H         91.02457       55.19249       45.43287
H         91.00702       54.31603       43.38403
H         93.17999       55.42586       43.23461
H         93.00760       53.99245       42.17373
H         94.39510       52.62941       43.80300
H         94.67523       54.13687       44.75467
N         90.84139       51.70326       44.83371
C         90.71177       50.24945       44.81482
C         89.26910       49.78853       44.62628
O         89.04959       48.58837       44.53976
C         91.32443       49.70429       46.12564
C         91.76460       48.23089       46.04500
C         92.91727       48.07887       45.08900
O         92.81628       47.28987       44.00547
O         93.95614       48.69024       45.28620
H         90.38958       52.22968       45.59677
H         91.29235       49.83955       43.96180
H         90.60425       49.86758       46.95661
H         92.23849       50.28986       46.37374
H         90.91988       47.57548       45.75487
H         92.11898       47.90225       47.04227
N         88.22730       50.66627       44.54567
C         86.86140       50.21360       44.38333
H         86.17201       51.08403       44.35436
H         86.75731       49.64440       43.43516
H         86.57374       49.56390       45.23784
H         88.38596       51.68134       44.60737
Ca        94.59356       47.24131       42.60970
O         97.07320       47.58860       44.33292
H         98.03965       47.41962       44.46546
H         96.84920       48.30044       44.98185
O         96.37692       47.95634       40.32165
H         96.49778       48.84353       39.89934
H         97.10561       47.39925       39.94934
O         97.09262       50.03870       42.65727
H         96.68670       50.92725       42.81534
H         97.93825       50.05670       43.17174
O         94.19209       50.12548       41.74930
H         93.86233       49.85062       42.64155
H         93.42263       49.97806       41.14461
O         92.80966       46.97730       40.27966
H         93.24325       47.77792       39.89053
H         92.30641       47.32255       41.05977

Ca 1.0



