%chk=apoCaM-CA-Ng.loop2.water3.frame213.chk
%nprocshared=20
%mem=10GB
%nosave
#b3lyp/svp scf=(tight,noincore,xqc) Test 
#IOP(5/87=12) Density=Current Pop=(MK,readradii) iop(6/33=2) iop(6/42=6)

apoCaM-CA-Ng.loop2.water3.frame213 

   -2  1 
C          7.41480       18.13598       77.06389
C          6.32995       17.10052       77.07852
O          6.33256       16.22351       76.22866
H          8.16362       17.91146       76.27457
H          6.97275       19.13501       76.86586
H          7.92900       18.15293       78.04778
N          5.38233       17.12825       78.05567
C          4.29631       16.15997       78.16840
C          3.18209       16.51556       77.18164
O          2.18104       17.08802       77.58442
C          3.82311       16.10684       79.64469
C          2.81066       15.02845       79.94185
O          2.38822       14.29083       79.06500
O          2.38366       14.86008       81.20789
H          5.48155       17.84335       78.79415
H          4.68324       15.13584       77.96306
H          3.41262       17.09133       79.95487
H          4.71203       15.88948       80.27874
N          3.29095       16.14916       75.87132
C          2.31823       16.43178       74.80942
C          2.40997       17.88507       74.33269
O          2.92713       18.14023       73.25225
C          2.58848       15.46683       73.64152
H          4.10254       15.56639       75.62351
H          1.28314       16.20493       75.14758
H          2.45397       14.41931       73.98794
H          1.87741       15.65288       72.80925
H          3.62810       15.58127       73.26390
N          1.93702       18.89889       75.10571
C          2.11823       20.31190       74.78222
C          1.30444       20.73601       73.56293
O          0.13942       20.37013       73.47593
C          1.73470       21.17120       76.00949
C          2.42963       22.50555       76.05415
O          2.28624       23.27696       77.14628
O          3.21424       22.84583       75.17963
H          1.48411       18.65838       75.99564
H          3.20796       20.45909       74.61268
H          2.09192       20.65275       76.92490
H          0.63117       21.28412       76.08886
N          1.84449       21.53486       72.59637
C          1.06803       21.95146       71.42871
C          1.79677       22.76786       70.35804
O          1.13990       23.07416       69.37251
H          2.81049       21.84108       72.73562
H          0.18347       22.53661       71.77065
H          0.69663       21.03624       70.91939
N          3.11349       23.13893       70.42994
C          3.81129       23.86335       69.36930
C          4.95666       23.00800       68.86442
O          5.76821       22.56705       69.66837
C          4.35678       25.20018       69.90936
C          5.00304       26.06144       68.83945
N          5.56030       27.24619       69.17334
O          5.02241       25.70297       67.67028
H          3.68215       22.89934       71.24764
H          3.12030       24.10021       68.53009
H          5.10069       24.99493       70.71063
H          3.51915       25.78063       70.35130
H          5.56041       27.57038       70.15072
H          5.99712       27.83778       68.45052
N          5.09016       22.73240       67.53729
C          6.14099       21.86765       67.03492
C          7.53925       22.41324       67.24520
O          7.71771       23.59333       67.51477
H          4.40581       23.11306       66.86584
H          6.01078       21.71030       65.94081
H          6.04276       20.88097       67.53273
N          8.59274       21.56920       67.06978
C          9.99245       21.98490       67.06057
C         10.45097       22.62426       68.36654
O         11.19718       23.59055       68.28857
C         10.92993       20.83571       66.59707
C         11.10139       19.70138       67.61808
O         10.49978       20.33643       65.35036
H          8.36891       20.58414       66.86913
H         10.09067       22.75934       66.26636
H         11.94565       21.25880       66.43479
H          9.81606       19.63219       65.50279
H         10.12550       19.26405       67.91055
H         11.74298       18.90475       67.18479
H         11.60877       20.08323       68.52038
N         10.06874       22.14806       69.59264
C         10.43381       22.81970       70.84801
C          9.21390       23.13658       71.68565
O          8.22601       22.41630       71.63010
C         11.55047       22.13308       71.68716
C         11.17498       20.81886       72.42032
C         12.84297       21.99168       70.86849
C         10.80446       19.62619       71.54317
H          9.44775       21.33000       69.61793
H         10.87406       23.80713       70.58809
H         11.79527       22.84927       72.50574
H         10.33513       21.01408       73.12121
H         12.05089       20.51887       73.03779
H         12.71807       21.29117       70.02494
H         13.14430       22.97906       70.45641
H         13.66970       21.62788       71.51408
H         10.63247       18.74255       72.19201
H          9.86168       19.80433       71.00218
H         11.61952       19.38050       70.83425
N          9.21010       24.25947       72.45497
C          8.02403       24.73572       73.15018
C          8.11899       26.24947       73.26493
O          7.93176       26.79847       74.33811
C          7.91332       24.01319       74.51693
C          6.65652       24.29801       75.29785
O          5.77422       25.01219       74.84844
O          6.50296       23.74300       76.51533
H         10.04806       24.86281       72.43317
H          7.13433       24.52379       72.51558
H          8.79368       24.30068       75.13482
H          7.95498       22.91505       74.35882
N          8.47440       26.98345       72.16970
C          8.68293       28.42543       72.20145
C          9.72332       28.79724       73.25670
O         10.82846       28.27488       73.19490
C          9.13103       28.93356       70.81111
C          9.34094       30.42976       70.82239
C          8.29943       31.29570       70.45434
C         10.57198       30.97247       71.23635
C          8.48415       32.68090       70.50858
C         10.75299       32.35644       71.28638
C          9.70885       33.21059       70.92537
H          8.64392       26.48464       71.28171
H          7.70954       28.90640       72.41466
H          8.33658       28.67403       70.07683
H         10.06125       28.42835       70.46648
H          7.34202       30.89874       70.14126
H         11.39082       30.32532       71.52468
H          7.67520       33.34426       70.23322
H         11.70158       32.76581       71.60980
H          9.84867       34.28264       70.97042
N          9.46423       29.72487       74.23310
C         10.45150       30.17040       75.20526
C         10.64439       29.17141       76.33188
O         11.63194       29.27997       77.04521
C          9.85397       31.48442       75.72256
C          8.36664       31.18919       75.69223
C          8.22039       30.45876       74.36266
H         11.43166       30.38176       74.72157
H         10.25406       31.83892       76.69676
H         10.03443       32.27408       74.95821
H          8.15167       30.46934       76.51346
H          7.68979       32.06082       75.80958
H          7.32542       29.80222       74.41468
H          8.14239       31.16447       73.50656
N          9.71868       28.20589       76.58920
C          9.85472       27.24196       77.67277
C         10.96731       26.23263       77.40860
O         11.23049       25.42690       78.29147
C          8.53213       26.48207       77.88085
C          7.36647       27.39739       78.29660
C          6.13231       26.56240       78.41455
O          5.13249       26.72115       77.53426
O          6.07139       25.66257       79.23622
H          8.86252       28.18910       76.02545
H         10.08137       27.79023       78.61370
H          8.66745       25.71293       78.67273
H          8.26951       25.96275       76.93405
H          7.19272       28.17506       77.52421
H          7.57843       27.90414       79.26319
N         11.65831       26.19107       76.23236
C         12.71688       25.23276       76.00359
H         13.52348       25.37708       76.75366
H         12.31756       24.19916       76.07941
H         13.14561       25.37630       74.98898
H         11.43971       26.84156       75.46632
Ca         3.74865       24.96880       77.33641
O          4.34507       22.63329       79.29491
H          4.41523       21.70505       78.95734
H          4.44217       22.55131       80.27667
O          2.60991       25.99970       74.90547
H          1.80699       25.65671       75.37316
H          2.64088       26.96115       75.13936
O          2.11775       26.31804       79.19616
H          2.23742       25.58227       79.84805
H          1.37095       26.01861       78.61855

Ca 1.0



