%chk=apoCaM-CA-Ng.loop2.water4.frame1271.chk
%nprocshared=20
%mem=10GB
%nosave
#b3lyp/svp scf=(tight,noincore,xqc) Test 
#IOP(5/87=12) Density=Current Pop=(MK,readradii) iop(6/33=2) iop(6/42=6)

apoCaM-CA-Ng.loop2.water4.frame1271 

   -2  1 
C         66.46907       58.64841       -6.61401
C         65.03433       58.31528       -6.28311
O         64.50182       57.42787       -6.93307
H         67.10708       57.75940       -6.42839
H         66.53831       58.91938       -7.68841
H         66.88172       59.50305       -6.04912
N         64.29797       58.96466       -5.33169
C         64.80799       60.02474       -4.46236
C         63.69482       60.77600       -3.74259
O         62.57444       60.29277       -3.65820
C         65.81447       59.46347       -3.42075
C         65.25246       58.37963       -2.52719
O         66.04273       57.82681       -1.58828
O         64.10551       57.97909       -2.64900
H         63.30689       58.69240       -5.25388
H         65.28855       60.78581       -5.11454
H         66.17795       60.29553       -2.78088
H         66.69641       59.02753       -3.92492
N         63.94340       62.02586       -3.25026
C         62.93286       62.85037       -2.59214
C         61.69057       62.98259       -3.45249
O         61.79391       63.00118       -4.67163
C         63.49610       64.23282       -2.25446
H         64.88813       62.41945       -3.38344
H         62.64794       62.35973       -1.63575
H         64.38266       64.12889       -1.59268
H         63.79968       64.76549       -3.18099
H         62.73242       64.83942       -1.72206
N         60.46632       62.99274       -2.85955
C         59.21089       62.86705       -3.58762
C         58.37101       64.11409       -3.45197
O         58.32722       64.69924       -2.38005
C         58.44053       61.65548       -3.02032
C         59.23358       60.39259       -3.20190
O         59.66905       59.70252       -2.13150
O         59.51604       60.00379       -4.32381
H         60.41805       63.02317       -1.82826
H         59.38205       62.68116       -4.67103
H         57.46292       61.53622       -3.53484
H         58.24339       61.81621       -1.93597
N         57.61428       64.54401       -4.50436
C         56.68482       65.65977       -4.40765
C         55.49296       65.37820       -3.49591
O         54.69537       66.28226       -3.29648
H         57.68176       64.05061       -5.40798
H         56.27751       65.88256       -5.41844
H         57.23853       66.55630       -4.05665
N         55.28821       64.14864       -2.93804
C         54.17479       63.78986       -2.06139
C         54.67233       63.29908       -0.69731
O         53.86827       62.81286        0.08544
C         53.32749       62.71177       -2.78238
C         54.10792       61.48411       -3.21411
N         54.66395       60.63689       -2.31563
O         54.23109       61.25162       -4.40761
H         55.94294       63.38817       -3.15706
H         53.50567       64.65901       -1.87586
H         52.90873       63.19123       -3.69588
H         52.46712       62.40429       -2.15043
H         54.56359       60.78076       -1.30336
H         55.19306       59.81292       -2.63701
N         55.99014       63.38519       -0.35768
C         56.61629       62.81756        0.82514
C         56.11179       63.34187        2.15423
O         55.13416       64.07508        2.18331
H         56.63355       63.85066       -1.00064
H         57.69518       63.07509        0.75092
H         56.51337       61.71242        0.80841
N         56.75470       63.05175        3.32846
C         58.02052       62.32252        3.42468
C         57.96220       61.20472        4.45910
O         57.60974       61.45943        5.60217
C         59.14085       63.33137        3.77851
C         60.52006       62.65573        3.84088
O         59.17113       64.33190        2.79160
H         56.38379       63.47174        4.19586
H         58.31050       61.87834        2.45309
H         58.90826       63.79199        4.76704
H         59.69827       65.08875        3.15888
H         60.54973       61.88289        4.63655
H         60.76289       62.18155        2.86535
H         61.30065       63.41092        4.07117
N         58.44294       59.96596        4.13775
C         58.67283       58.89146        5.10418
C         60.18000       58.81818        5.33288
O         60.90793       58.80969        4.34968
C         58.12052       57.53451        4.57942
C         56.58011       57.61702        4.44356
C         58.53253       56.37342        5.51630
C         55.93881       56.34247        3.89148
H         58.79863       59.81684        3.18059
H         58.15574       59.12904        6.05030
H         58.56955       57.33207        3.58123
H         56.32216       58.44813        3.75296
H         56.12807       57.83804        5.43600
H         58.22108       55.39357        5.10542
H         59.63639       56.30961        5.61770
H         58.08808       56.49852        6.52529
H         54.84511       56.49817        3.78611
H         56.36593       56.09522        2.89728
H         56.08098       55.48497        4.58040
N         60.76235       58.79983        6.56980
C         60.07101       58.63312        7.84969
C         60.74808       57.55106        8.69039
O         61.74680       56.98922        8.25615
C         59.96258       59.99598        8.57316
C         61.26058       60.66946        8.93538
O         62.34040       60.15317        8.69839
O         61.22303       61.87277        9.53868
H         61.79232       58.86745        6.59610
H         59.03639       58.27984        7.70527
H         59.36972       59.87471        9.50364
H         59.39397       60.68475        7.91086
N         60.26900       57.22996        9.92727
C         60.93223       56.29390       10.83307
C         59.93335       55.27671       11.38553
O         58.82623       55.69906       11.70420
C         61.50687       57.11236       12.00859
C         62.55055       56.31840       12.74459
C         62.29852       55.77374       14.01234
C         63.79920       56.09950       12.13239
C         63.27993       55.00590       14.64966
C         64.77857       55.34366       12.77716
C         64.51787       54.79252       14.03340
H         59.44149       57.73597       10.27941
H         61.77557       55.78873       10.31445
H         60.67360       57.43700       12.67153
H         62.00550       58.03695       11.64223
H         61.33990       55.92158       14.49305
H         64.01031       56.51519       11.15383
H         63.07987       54.57086       15.61948
H         65.73578       55.18143       12.29827
H         65.27547       54.19861       14.52705
N         60.22182       53.95801       11.62983
C         61.50799       53.29145       11.44896
C         61.73375       52.81427       10.02354
O         62.69259       52.08160        9.81769
C         61.40024       52.11139       12.42709
C         59.95137       51.70852       12.27277
C         59.26501       53.06958       12.26924
H         62.36973       53.89612       11.77164
H         62.14475       51.29912       12.28266
H         61.52112       52.50286       13.46494
H         59.84073       51.24527       11.26646
H         59.56214       50.99995       13.03471
H         58.29674       53.00597       11.72652
H         59.09589       53.43353       13.30756
N         60.88804       53.14264        9.00586
C         61.02999       52.65665        7.63085
C         59.71736       52.82837        6.85219
O         58.82607       53.52437        7.32142
C         62.15254       53.41637        6.85654
C         63.59124       53.14916        7.31877
C         64.57726       53.81862        6.40486
O         64.57868       55.15925        6.27747
O         65.38668       53.15200        5.77943
H         60.06239       53.70584        9.24399
H         61.21448       51.56173        7.68331
H         61.94328       54.50825        6.89101
H         62.12023       53.11826        5.79026
H         63.77306       52.05076        7.30821
H         63.76750       53.55200        8.33377
N         59.48168       52.22660        5.64896
C         60.36837       51.29852        4.97215
H         61.29548       51.07607        5.53119
H         59.83768       50.33482        4.82705
H         60.64191       51.71040        3.97900
H         58.58097       52.41544        5.18262
Ca        61.05630       57.95083       -2.47187
O         60.87615       57.45377       -5.62291
H         61.02534       58.12844       -6.33230
H         61.54412       56.74663       -5.80793
O         62.45667       59.72830       -0.51513
H         63.19155       60.34554       -0.27372
H         62.09393       59.41911        0.35235
O         61.30521       56.28413        0.01857
H         61.37352       56.95037        0.74770
H         62.24224       56.11964       -0.25647
O         58.83762       56.20602       -2.67485
H         58.38220       55.95555       -1.83249
H         58.28158       55.81337       -3.39285

Ca 1.0



