%chk=apoCaM-CA-Ng.loop4.water3.frame232.chk
%nprocshared=20
%mem=10GB
%nosave
#b3lyp/svp scf=(tight,noincore,xqc) Test 
#IOP(5/87=12) Density=Current Pop=(MK,readradii) iop(6/33=2) iop(6/42=6)

apoCaM-CA-Ng.loop4.water3.frame232 

   -3  1 
C         25.47729       41.16668       83.03893
C         25.23288       42.67008       83.07830
O         24.75030       43.02845       84.33286
H         26.18659       40.89347       83.85075
H         24.52623       40.61500       83.18666
H         25.93637       40.87879       82.07085
N         24.35775       43.14734       81.99730
C         24.42963       44.61349       81.78144
C         25.85702       45.16748       81.81063
O         26.18797       45.93735       82.69226
C         23.34738       45.39541       82.58088
C         23.38928       45.35107       84.08296
O         24.41920       45.88266       84.76223
O         22.45472       44.86622       84.70200
H         24.69707       42.69653       81.11546
H         24.09230       44.80677       80.73694
H         22.36180       44.98821       82.26161
H         23.37708       46.46323       82.27361
N         26.72544       44.81470       80.81243
C         28.10766       45.26639       80.59087
C         28.19424       46.75909       80.28025
O         28.47007       47.08758       79.13378
C         29.10281       44.80358       81.69090
C         30.57592       45.19668       81.36589
C         28.99293       43.28311       81.90720
C         31.14936       44.59767       80.07193
H         26.36171       44.16180       80.10119
H         28.42381       44.74739       79.65864
H         28.83959       45.30027       82.64966
H         31.22276       44.87374       82.21037
H         30.65971       46.30171       81.29567
H         27.97820       43.01534       82.26445
H         29.18319       42.72421       80.96807
H         29.72407       42.94544       82.66912
H         32.20149       44.92901       79.94681
H         31.14655       43.48911       80.10269
H         30.58909       44.94112       79.17929
N         27.97239       47.72280       81.22069
C         27.95931       49.13977       80.88975
C         29.36900       49.67114       80.64324
O         29.59281       50.13657       79.53439
C         27.12674       49.95751       81.90838
C         25.66762       49.55485       81.93311
O         25.24427       48.64219       81.23931
O         24.81144       50.22629       82.72537
H         27.76284       47.45923       82.18793
H         27.39175       49.27026       79.93807
H         27.16525       51.02862       81.61499
H         27.50956       49.85931       82.93750
N         30.39280       49.66644       81.55175
C         30.31405       49.17738       82.92467
C         31.61667       49.38418       83.69703
O         32.61293       49.73728       83.08130
H         31.28012       50.07561       81.22226
H         30.05026       48.09905       82.93966
H         29.54403       49.76048       83.41406
N         31.74852       49.19595       85.04790
C         30.72190       48.84314       86.02336
C         30.10931       47.47537       85.74843
O         28.93878       47.41025       85.40520
C         29.70725       49.99985       86.22888
C         28.80686       49.76572       87.41286
O         27.59453       49.76877       87.27378
O         29.33248       49.58509       88.63961
H         32.69064       49.34503       85.43753
H         31.21737       48.77554       87.01586
H         29.07132       50.17993       85.35090
H         30.27909       50.93150       86.42989
N         30.79381       46.30865       85.95411
C         32.16106       46.21753       86.43680
C         33.16467       46.55325       85.36867
O         32.80369       46.67408       84.20603
H         30.28670       45.42612       85.83605
H         32.38077       45.17597       86.75781
H         32.28413       46.86121       87.33135
N         34.47228       46.71636       85.70755
C         35.49084       47.05507       84.72316
C         35.98062       45.81446       83.98556
O         36.77529       45.97448       83.06582
C         36.68227       47.79994       85.37207
C         36.32257       49.17461       85.97891
C         35.47533       49.10427       87.22457
N         35.92546       48.46959       88.33175
O         34.38052       49.64459       87.24389
H         34.74025       46.62152       86.69779
H         35.05142       47.75429       83.97566
H         37.42010       48.00838       84.56591
H         37.18436       47.15701       86.12633
H         35.81581       49.79055       85.20246
H         37.26487       49.69280       86.25713
H         36.85249       48.02110       88.34327
H         35.34622       48.43139       89.18357
N         35.56281       44.55337       84.31349
C         36.00011       43.35010       83.61240
C         36.74246       42.37757       84.52586
O         37.17611       41.35465       84.02323
C         34.80299       42.64867       82.91311
C         34.15539       43.57668       81.87652
C         33.74717       42.14880       83.90761
H         34.89942       44.42862       85.09165
H         36.72425       43.61527       82.80911
H         35.19193       41.76415       82.36102
H         34.90749       43.89747       81.12440
H         33.34397       43.03869       81.34311
H         33.72659       44.47981       82.35999
H         32.93693       41.61841       83.36342
H         34.19340       41.43696       84.63307
H         33.30207       42.99546       84.46532
N         36.97419       42.64305       85.85173
C         37.79334       41.76781       86.69127
C         37.08182       41.31843       87.96692
O         37.72222       40.60304       88.73082
C         39.09241       42.51698       87.07724
C         39.88889       42.97645       85.87483
N         41.13347       42.49909       85.64090
O         39.41158       43.80348       85.11120
H         36.64519       43.52219       86.26901
H         38.09110       40.85118       86.13842
H         39.72342       41.83663       87.69119
H         38.85093       43.40674       87.69845
H         41.56375       41.80448       86.26833
H         41.67091       42.82427       84.82319
N         35.80201       41.67006       88.29362
C         35.21468       41.39943       89.61373
C         33.70461       41.56738       89.62233
O         33.21423       42.57703       89.13415
C         35.79619       42.37462       90.67119
C         37.20030       42.02405       91.08243
C         37.43434       40.82287       91.77407
C         38.28012       42.87254       90.79109
C         38.72718       40.47057       92.16155
C         39.57744       42.51255       91.17300
C         39.80535       41.31289       91.85867
O         41.06007       40.97975       92.22167
H         35.23782       42.19810       87.60842
H         35.41294       40.34704       89.91382
H         35.18950       42.34048       91.60373
H         35.72722       43.41115       90.27091
H         36.61191       40.16038       92.01589
H         38.12132       43.80118       90.25749
H         38.88777       39.54200       92.69488
H         40.40691       43.16570       90.93443
H         41.25544       40.15908       92.69676
N         32.92975       40.64561       90.28433
C         31.47719       40.68279       90.48353
C         30.72006       40.09901       89.31120
O         29.89812       39.21698       89.52203
C         30.90965       42.06797       90.86493
C         31.53802       42.62961       92.14567
C         30.87227       43.91699       92.53960
O         30.23359       44.01067       93.72174
O         30.90397       44.88235       91.79285
H         33.41960       39.87946       90.77299
H         31.24274       40.01802       91.34747
H         29.81726       41.94510       91.04404
H         31.01668       42.79205       90.03135
H         32.62296       42.81166       91.99734
H         31.41167       41.89253       92.96840
N         30.93367       40.54718       88.04911
C         30.17794       40.09656       86.88838
C         30.24153       38.58949       86.74863
O         29.19417       37.95606       86.72499
C         30.68577       40.79642       85.60339
C         30.67994       42.34378       85.66302
C         29.32043       42.92618       85.88199
O         28.80851       43.74445       84.95588
O         28.68125       42.69231       86.89443
H         31.66785       41.24503       87.91456
H         29.11005       40.36239       87.03100
H         30.05785       40.46854       84.74535
H         31.73048       40.47453       85.40450
H         31.05656       42.72069       84.69145
H         31.36201       42.73475       86.44169
N         31.43369       37.93855       86.69716
C         31.50641       36.49574       86.61833
H         32.56635       36.16720       86.62911
H         30.98710       36.04267       87.49125
H         31.02625       36.14196       85.68160
H         32.31172       38.47657       86.74592
Ca        26.62521       44.06991       84.97023
O         25.37484       44.08687       87.78532
H         25.02894       44.30724       88.68636
H         24.57582       44.10438       87.20077
O         26.01089       48.16193       84.82576
H         26.47469       48.06917       85.69280
H         25.48756       48.99546       84.91959
O         27.02742       46.67013       87.94946
H         26.21136       47.00369       88.40059
H         27.77167       46.96159       88.53350

Ca 1.0



