%chk=apoCaM-CA-Ng.loop1.water3.frame774.chk
%nprocshared=20
%mem=10GB
%nosave
#b3lyp/svp scf=(tight,noincore,xqc) Test 
#IOP(5/87=12) Density=Current Pop=(MK,readradii) iop(6/33=2) iop(6/42=6)

apoCaM-CA-Ng.loop1.water3.frame774 

   0  1 
C         73.29433      115.72493        8.30507
C         74.65550      116.33762        8.15377
O         74.74378      117.54134        7.95985
H         72.70927      115.90779        7.37869
H         73.35726      114.62667        8.46112
H         72.76997      116.17907        9.16921
N         75.76630      115.55192        8.18159
C         77.10641      116.06312        7.90574
C         78.01720      114.97938        7.34522
O         77.62741      113.82080        7.31456
C         77.65698      116.92894        9.06586
C         77.77502      116.37458       10.47266
O         77.51015      115.10439       10.85179
O         78.12540      117.15512       11.34408
H         75.61907      114.53984        8.29023
H         77.01358      116.74117        7.02763
H         76.97537      117.80186        9.15527
H         78.65025      117.33148        8.77380
N         79.19240      115.31152        6.73402
C         79.94161      114.35097        5.92965
C         81.28873      114.09415        6.55853
O         82.32388      114.39545        5.97978
C         79.98903      114.84317        4.46538
C         80.34643      113.70817        3.48741
C         80.32085      114.19868        2.03153
C         80.40626      113.05527        1.00321
N         81.62735      112.26022        1.13356
H         79.51861      116.29034        6.75551
H         79.41398      113.37281        5.90681
H         80.67237      115.71493        4.36539
H         78.96481      115.17928        4.18718
H         79.58186      112.90744        3.60171
H         81.34427      113.28583        3.72823
H         81.14837      114.92356        1.87304
H         79.35872      114.72331        1.84003
H         80.36965      113.50336       -0.01486
H         79.52038      112.38967        1.11065
H         81.62821      111.73722        2.03830
H         81.65660      111.56075        0.35650
H         82.46995      112.87523        1.06975
N         81.31673      113.47778        7.76992
C         82.53229      113.11540        8.48683
C         82.65760      111.59469        8.51739
O         81.70516      110.92767        8.13371
C         82.45722      113.73388        9.90645
C         81.25143      113.27280       10.68941
O         81.10118      112.09308       10.96626
O         80.33199      114.16927       11.09234
H         80.41300      113.20541        8.18792
H         83.41696      113.52205        7.95685
H         82.40977      114.83876        9.80116
H         83.35194      113.51016       10.50611
N         83.76790      110.92647        8.94535
C         85.04951      111.50054        9.32854
C         85.81049      112.08212        8.16159
O         85.31440      112.09603        7.04377
H         83.70228      109.89993        8.98467
H         85.68642      110.67168        9.70812
H         84.95277      112.22344       10.15099
N         87.08086      112.53548        8.35512
C         87.94217      112.93580        7.25056
C         88.16156      111.75996        6.30110
O         87.85164      111.90457        5.12654
C         89.25799      113.61338        7.72843
C         90.15571      112.91022        8.71939
O         89.86034      111.84332        9.22636
O         91.29726      113.51585        9.09766
H         87.45132      112.55311        9.31641
H         87.42697      113.73624        6.67001
H         88.98012      114.57713        8.20797
H         89.85965      113.85458        6.82482
N         88.64868      110.55659        6.72750
C         88.82328      109.42140        5.83681
C         87.51551      108.81356        5.36251
O         87.57445      107.94966        4.49989
H         88.90941      110.42130        7.70845
H         89.38073      108.61452        6.36132
H         89.43632      109.74525        4.96817
N         86.30928      109.16319        5.90291
C         85.03640      108.58802        5.47402
C         84.41540      107.79968        6.60936
O         84.70851      108.07427        7.76256
C         84.05374      109.70897        5.04743
C         84.61653      110.58468        3.92679
O         82.84068      109.14340        4.61953
H         86.28326      109.83975        6.67413
H         85.19515      107.89644        4.61849
H         83.86980      110.35320        5.93888
H         82.12848      109.81276        4.79890
H         83.88505      111.38232        3.67438
H         85.55535      111.07668        4.24937
H         84.81496      109.97555        3.02081
N         83.50948      106.81397        6.34589
C         82.77061      106.11666        7.40177
C         83.71361      105.36361        8.35602
O         83.27250      104.98405        9.43215
C         81.65684      105.17623        6.80708
C         80.77774      105.83945        5.70044
C         80.72903      104.60814        7.90260
C         80.09878      107.14988        6.10393
H         83.32184      106.60239        5.35909
H         82.26177      106.91159        7.99231
H         82.15736      104.31108        6.31828
H         79.99817      105.11538        5.37602
H         81.37719      106.04027        4.79150
H         79.96175      103.94511        7.44847
H         81.27838      103.98218        8.62945
H         80.21216      105.42194        8.45265
H         79.50104      107.52576        5.24607
H         79.41712      107.00504        6.96482
H         80.85518      107.92225        6.35345
N         85.02808      105.14289        8.05083
C         85.98139      104.49134        8.94860
C         86.56035      103.23944        8.30675
O         86.21974      102.91930        7.17413
C         87.12150      105.47937        9.34375
C         87.87329      106.07229        8.14245
O         86.64481      106.50469       10.17771
H         85.38817      105.44551        7.13526
H         85.48389      104.16330        9.88845
H         87.86713      104.92368        9.94584
H         85.91635      106.97522        9.70109
H         88.75569      106.64355        8.49821
H         88.22765      105.26820        7.46344
H         87.22262      106.76527        7.57132
N         87.45842      102.48097        8.99924
C         88.07769      101.26771        8.49052
C         87.65490      100.13117        9.40441
O         86.84457       99.31746        8.98657
C         89.60941      101.49189        8.35476
C         90.35952      100.23619        7.91429
O         90.15983      101.96366        9.55990
H         87.71209      102.76535        9.95774
H         87.68797      101.03702        7.47277
H         89.73711      102.27516        7.56864
H         90.89459      102.59073        9.33024
H         90.26218       99.43606        8.67861
H         89.96598       99.87134        6.94351
H         91.43840      100.47489        7.79527
N         88.11755      100.04848       10.68457
C         87.55843       99.15072       11.68714
C         87.22610       99.95333       12.93998
O         87.58627      101.11930       13.02252
C         88.50006       97.95670       11.95322
C         89.91330       98.33366       12.42601
C         90.76578       97.06749       12.61088
C         92.19931       97.40522       13.04106
N         92.99323       96.18757       13.21332
H         88.85465      100.69154       10.99422
H         86.60408       98.72078       11.31127
H         88.59434       97.38773       11.00134
H         88.02917       97.28290       12.70216
H         89.85373       98.88770       13.38759
H         90.39834       98.98119       11.66406
H         90.80627       96.50819       11.64967
H         90.29576       96.41638       13.38037
H         92.17857       97.96795       14.00029
H         92.67691       98.04566       12.26624
H         93.96583       96.44805       13.49535
H         92.57452       95.58731       13.96069
H         93.03503       95.65242       12.31535
N         86.50638       99.39670       13.95341
C         86.15863      100.14097       15.16281
C         85.39499      101.43149       14.84345
O         85.90201      102.47918       15.22164
C         85.40056       99.24820       16.17364
C         86.24253       98.09845       16.76300
C         87.30642       98.56534       17.72493
O         88.23998       99.25456       17.34850
O         87.24174       98.19512       19.01845
H         86.19166       98.42081       13.85132
H         87.09799      100.46488       15.65280
H         84.53087       98.78979       15.67102
H         85.02370       99.86303       17.02054
H         86.69890       97.48376       15.95868
H         85.54904       97.44374       17.33353
N         84.22095      101.50873       14.15056
C         83.49499      100.38991       13.59505
H         82.60631      100.76709       13.04456
H         84.13009       99.83028       12.87948
H         83.11505       99.73140       14.39506
H         83.82334      102.44705       13.98397
Ca        76.96917      113.13761        9.88778
O         77.96852      112.83561       13.31443
H         77.28872      113.04452       14.00339
H         78.63689      113.56136       13.39696
O         78.34701      110.67978        8.40206
H         78.83732      111.07786        7.63969
H         77.39366      110.73529        8.13995
O         78.25909      110.15643       11.62240
H         78.79428      109.47848       11.13825
H         78.35895      109.91533       12.57764

Ca 1.0



