%chk=apoCaM-CA-Ng.loop2.water2.frame986.chk
%nprocshared=20
%mem=10GB
%nosave
#b3lyp/svp scf=(tight,noincore,xqc) Test 
#IOP(5/87=12) Density=Current Pop=(MK,readradii) iop(6/33=2) iop(6/42=6)

apoCaM-CA-Ng.loop2.water2.frame986 

   -2  1 
C         46.46552      102.32267       75.83597
C         45.66990      101.60053       76.88065
O         44.60237      101.08705       76.57570
H         47.45087      101.82604       75.71577
H         45.93621      102.31339       74.85947
H         46.62322      103.37674       76.14760
N         46.13284      101.53551       78.16003
C         45.39824      100.87107       79.23134
C         45.43853       99.33878       79.10513
O         44.79874       98.67670       79.91007
C         45.94117      101.35922       80.59402
C         45.06800      100.96072       81.75188
O         43.90276      101.32466       81.79542
O         45.57517      100.23273       82.76382
H         47.01182      102.02899       78.38347
H         44.34154      101.21839       79.17278
H         45.96526      102.47205       80.58626
H         46.97986      100.99290       80.74230
N         46.14308       98.70795       78.11260
C         46.15808       97.26171       77.90202
C         47.59836       96.74632       77.84514
O         48.34507       97.26897       77.02838
C         45.47762       96.95296       76.56474
H         46.67355       99.26894       77.43282
H         45.54888       96.74826       78.66403
H         46.00313       97.45349       75.72302
H         45.47468       95.85637       76.38273
H         44.42494       97.30684       76.58461
N         48.09422       95.71052       78.59402
C         47.36000       94.94005       79.59616
C         48.24065       94.59848       80.79025
O         49.43577       94.86057       80.76747
C         46.72475       93.68158       78.96507
C         47.72897       92.69582       78.44278
O         48.57276       93.05966       77.46963
O         47.74307       91.54775       78.85406
H         49.06125       95.41574       78.38488
H         46.54672       95.55785       80.01309
H         46.07359       93.99291       78.11982
H         46.08219       93.17355       79.71450
N         47.67811       94.05912       81.90707
C         48.41269       93.80863       83.13524
C         48.08697       92.44554       83.69869
O         47.42890       92.40496       84.72882
H         46.65750       93.90786       81.92176
H         48.05763       94.56487       83.86947
H         49.50764       93.95057       83.02710
N         48.46266       91.26744       83.12462
C         49.30023       91.12155       81.93554
C         50.73263       91.55435       82.24764
O         51.13569       91.45591       83.39922
C         49.27120       89.62510       81.52587
C         49.85010       89.25709       80.18465
N         49.88730       87.95459       79.82293
O         50.25644       90.10818       79.41177
H         48.11817       90.40756       83.58329
H         48.85740       91.72747       81.12068
H         48.21098       89.29152       81.48726
H         49.78875       89.03592       82.31508
H         49.53436       87.22291       80.45653
H         50.27154       87.67021       78.91381
N         51.56062       92.03410       81.27405
C         52.93596       92.45645       81.52157
C         53.97099       91.71758       80.68575
O         55.14028       92.05064       80.81163
H         51.19389       92.13801       80.31992
H         53.21276       92.33193       82.59017
H         53.01116       93.53746       81.27756
N         53.63507       90.72757       79.80829
C         54.59529       90.03197       78.94974
C         54.26498       90.31261       77.48925
O         53.30433       91.01990       77.21988
C         54.54543       88.50660       79.23279
C         54.93403       88.17389       80.67515
O         53.25578       88.01524       78.96732
H         52.65132       90.45310       79.71573
H         55.63196       90.39103       79.13120
H         55.28461       88.00054       78.57002
H         53.35298       87.05317       78.74270
H         54.22510       88.63557       81.39367
H         54.91516       87.07203       80.82031
H         55.96198       88.53621       80.88798
N         55.00336       89.74985       76.48743
C         54.65078       89.87140       75.07761
C         54.12376       88.52626       74.63502
O         54.83398       87.53629       74.74387
C         55.84517       90.36587       74.21380
C         55.43076       90.39081       72.71284
C         56.28566       91.75968       74.69804
C         56.51078       90.90213       71.75944
H         55.79928       89.14158       76.72990
H         53.84015       90.61337       74.94267
H         56.70310       89.66681       74.33436
H         54.52227       91.01768       72.57802
H         55.18392       89.35496       72.39270
H         56.57153       91.72886       75.77001
H         57.17780       92.11207       74.14203
H         55.46300       92.49545       74.56721
H         56.14427       90.81411       70.71420
H         56.72897       91.97379       71.94300
H         57.44064       90.30522       71.86368
N         52.85785       88.43008       74.13678
C         52.23055       87.16804       73.77603
C         51.96668       87.07219       72.28836
O         51.58314       85.99318       71.85209
C         50.88197       87.04689       74.51143
C         51.02392       87.23753       75.98986
O         50.47569       88.18373       76.53220
O         51.75691       86.37764       76.72025
H         52.29919       89.28730       74.02844
H         52.89531       86.32134       74.05643
H         50.41272       86.05970       74.31154
H         50.19911       87.83764       74.12256
N         52.07429       88.14794       71.45083
C         51.73505       88.05576       70.04000
C         51.51233       89.43749       69.42938
O         52.42932       90.24868       69.47617
C         52.81542       87.26174       69.26393
C         52.47699       87.16062       67.79190
C         52.73016       88.24284       66.92732
C         51.88889       85.99601       67.27147
C         52.38940       88.16695       65.57627
C         51.54432       85.92601       65.91708
C         51.79254       87.01097       65.07140
H         52.31953       89.07337       71.83064
H         50.79541       87.48109       69.97905
H         52.87077       86.24082       69.69749
H         53.82544       87.71220       69.38144
H         53.19418       89.14786       67.29516
H         51.67960       85.15127       67.91548
H         52.58643       89.00728       64.92290
H         51.07961       85.03202       65.52320
H         51.52371       86.95689       64.02473
N         50.34805       89.76208       68.77106
C         50.14884       90.98824       68.00298
C         50.21323       92.30494       68.75583
O         50.05831       93.33193       68.10868
C         48.72951       90.83503       67.43832
C         48.62066       89.34484       67.25655
C         49.24602       88.83805       68.54525
H         50.90616       90.98422       67.18702
H         47.98603       91.10653       68.22529
H         48.52454       91.44160       66.53107
H         47.59694       88.95961       67.06396
H         49.28325       89.05727       66.40777
H         48.54357       88.90717       69.40612
H         49.54326       87.78935       68.34288
N         50.37941       92.37530       70.10676
C         50.31599       93.64527       70.82611
C         51.40085       94.64423       70.44930
O         51.30617       95.78177       70.89291
C         50.34993       93.41774       72.34474
C         51.67672       92.81297       72.85620
C         51.57556       92.69411       74.33777
O         51.50539       91.48804       74.92029
O         51.40785       93.69593       75.01626
H         50.46110       91.50373       70.64591
H         49.33229       94.10594       70.57931
H         49.50725       92.74571       72.62568
H         50.17388       94.39673       72.84512
H         52.54697       93.45430       72.60153
H         51.83594       91.80707       72.41399
N         52.47036       94.31051       69.67644
C         53.49734       95.27677       69.35575
H         54.28498       94.80229       68.73481
H         53.05504       96.12538       68.79135
H         53.96129       95.65839       70.29104
H         52.58237       93.35102       69.32109
Ca        50.02282       91.61762       76.56655
O         47.55933       90.44817       75.38385
H         47.91923       90.28130       74.47664
H         47.32604       91.41067       75.38469
O         51.79849       93.58263       78.18210
H         50.93317       93.75551       78.62982
H         52.16625       94.48340       78.00338

Ca 1.0



