%chk=apoCaM-CA-Ng.loop3.water3.frame749.chk
%nprocshared=20
%mem=10GB
%nosave
#b3lyp/svp scf=(tight,noincore,xqc) Test 
#IOP(5/87=12) Density=Current Pop=(MK,readradii) iop(6/33=2) iop(6/42=6)

apoCaM-CA-Ng.loop3.water3.frame749 

   0  1 
C          2.18484       18.29762       -4.80142
C          2.50247       18.01535       -6.23925
O          1.86311       18.58179       -7.11444
H          1.12687       18.03553       -4.59555
H          2.83203       17.70103       -4.12339
H          2.35100       19.37354       -4.58781
N          3.50170       17.14936       -6.55672
C          3.87602       16.83112       -7.92522
C          2.72494       16.11816       -8.62104
O          2.29922       15.07194       -8.14987
C          5.15772       15.97406       -7.90381
C          5.74343       15.73056       -9.25512
O          6.86779       14.99889       -9.36555
O          5.22086       16.19621      -10.25272
H          4.03477       16.71680       -5.78638
H          4.11997       17.77955       -8.45240
H          4.95053       15.00271       -7.40753
H          5.93430       16.51024       -7.31887
N          2.14178       16.66251       -9.72794
C          0.95607       16.08688      -10.36234
C          1.23227       14.73685      -11.00688
O          0.28588       14.00945      -11.27469
C          0.39519       17.09380      -11.38152
C         -1.02198       16.77380      -11.88629
C         -1.61642       17.97245      -12.64512
C         -0.92351       18.25736      -13.98672
N         -1.43508       19.49456      -14.57603
H          2.51417       17.55665      -10.08408
H          0.20138       15.95526       -9.55471
H          1.11223       17.20227      -12.22329
H          0.32948       18.06859      -10.85049
H         -1.66855       16.60399      -10.99774
H         -1.04279       15.85704      -12.51383
H         -1.55386       18.86889      -11.98923
H         -2.69219       17.77617      -12.84502
H         -1.11209       17.40217      -14.67280
H          0.17367       18.36662      -13.86200
H         -1.11390       20.31018      -14.00360
H         -1.05684       19.59694      -15.54500
H         -2.47983       19.48457      -14.61381
N          2.50620       14.34416      -11.29238
C          2.85160       13.04731      -11.85547
C          3.73672       12.23370      -10.92136
O          3.83776       11.04448      -11.15880
C          3.48618       13.22746      -13.25752
C          4.65844       14.18862      -13.32580
O          5.44066       14.40589      -12.25233
O          4.88704       14.78809      -14.36370
H          3.27064       15.00243      -11.11575
H          1.92876       12.43858      -11.98746
H          2.69225       13.64147      -13.91484
H          3.77892       12.24764      -13.69609
N          4.34211       12.76353       -9.81566
C          5.15667       12.00470       -8.87480
C          6.55964       11.62641       -9.34442
O          7.23322       10.96559       -8.56643
H          4.16627       13.74060       -9.57309
H          4.59626       11.09511       -8.56656
H          5.30341       12.62099       -7.96144
N          7.08001       11.97580      -10.56360
C          8.40773       11.53974      -11.02080
C          9.29933       12.69633      -11.46338
O          8.83738       13.81333      -11.59775
C          8.25946       10.57777      -12.22524
C          7.62090        9.25753      -11.86509
N          6.33861        9.19526      -11.46013
O          8.26876        8.22759      -11.96184
H          6.50264       12.51840      -11.21451
H          8.94860       11.01258      -10.20555
H          9.26626       10.35028      -12.63298
H          7.67522       11.07286      -13.03486
H          5.79403       10.05045      -11.41771
H          5.88819        8.30304      -11.21251
N         10.61688       12.45820      -11.73843
C         11.54227       13.40723      -12.34477
C         11.65336       14.72054      -11.61101
O         11.90270       14.73485      -10.41405
H         10.98995       11.51598      -11.54953
H         11.22117       13.59487      -13.39228
H         12.54934       12.94049      -12.38816
N         11.49820       15.88220      -12.30793
C         11.50072       17.20374      -11.69917
C         10.31561       17.30913      -10.69325
O          9.14557       16.73461      -11.20233
C         11.43553       18.30087      -12.80649
C         12.71071       18.46195      -13.61189
C         12.71212       18.26734      -15.00429
C         13.90112       18.87691      -12.98326
C         13.87577       18.48964      -15.75138
C         15.06269       19.09756      -13.73237
C         15.05362       18.91112      -15.11776
O         16.17540       19.14975      -15.82837
H         11.34564       15.82226      -13.32683
H         12.43789       17.36935      -11.12529
H         11.26139       19.30192      -12.36116
H         10.58000       18.08417      -13.47179
H         11.81010       17.95980      -15.51686
H         13.92854       19.05196      -11.91532
H         13.85829       18.34604      -16.82452
H         15.96801       19.42861      -13.23738
H         16.20586       19.05801      -16.79166
N         10.11699       18.70502      -10.28320
C          9.12604       19.00857       -9.23671
C          7.73459       19.15058       -9.82217
O          7.14664       18.17461      -10.25501
C          9.11597       18.04991       -8.00241
C          8.19716       18.59639       -6.86530
C         10.52339       17.76529       -7.45303
C          8.62937       19.94334       -6.26036
H         11.04295       19.06732       -9.95433
H          9.42823       20.00798       -8.86440
H          8.69717       17.06797       -8.31863
H          8.16429       17.84972       -6.04317
H          7.15924       18.70732       -7.24170
H         10.45173       17.10861       -6.55910
H         11.13837       17.22468       -8.19911
H         11.05062       18.70033       -7.17932
H          9.64846       19.88243       -5.82748
H          8.59829       20.76330       -7.00535
H          7.93218       20.22323       -5.44385
N          7.12789       20.36352       -9.80393
C          5.74555       20.59763      -10.18373
C          5.64673       21.60354      -11.31543
O          4.53882       22.04803      -11.58742
C          5.02541       21.12813       -8.93152
O          5.03874       20.14250       -7.93621
H          7.65512       21.17497       -9.44611
H          5.22530       19.66910      -10.50800
H          3.97227       21.38656       -9.17995
H          5.55129       22.03671       -8.55761
H          4.45341       20.47122       -7.20623
N          6.74476       22.01617      -12.02161
C          6.68853       23.10342      -12.98983
C          7.02762       22.65356      -14.40473
O          7.50063       21.53901      -14.57534
C          7.67149       24.18544      -12.52560
H          7.66390       21.58478      -11.84488
H          5.65710       23.50732      -13.00774
H          8.69831       23.76136      -12.47675
H          7.70304       25.05948      -13.20164
H          7.38569       24.53442      -11.51121
N          6.77058       23.43345      -15.50334
C          6.07389       24.71949      -15.46840
C          6.86326       25.81754      -16.17602
O          7.49625       25.51501      -17.17788
C          4.68896       24.55249      -16.08177
H          7.00249       23.04712      -16.43290
H          5.89072       25.01494      -14.43796
H          4.12434       25.50706      -16.01758
H          4.75373       24.22511      -17.13891
H          4.13259       23.78541      -15.49806
N          6.90837       27.12030      -15.74449
C          6.11877       27.67820      -14.64337
C          6.96380       27.97845      -13.41027
O          6.38206       28.30928      -12.38612
C          5.24404       28.87463      -15.11241
C          5.96213       30.22007      -15.33374
C          6.96552       30.21304      -16.44539
O          8.27935       30.29976      -16.16188
O          6.59987       30.14501      -17.60805
H          7.53892       27.75346      -16.25427
H          5.37223       26.94456      -14.30988
H          4.49561       29.06456      -14.31093
H          4.67839       28.57658      -16.02270
H          6.45948       30.50922      -14.38554
H          5.20684       31.00536      -15.56256
N          8.32324       27.83279      -13.40692
C          9.14153       27.99568      -12.21954
H          9.90556       28.78262      -12.38864
H          8.54672       28.26567      -11.32171
H          9.65987       27.03562      -12.00894
H          8.81887       27.56628      -14.26861
Ca         7.21939       15.82889      -12.08465
O          5.14813       17.79528      -12.83260
H          5.23490       18.61020      -13.38750
H          4.37300       17.97271      -12.24359
O          8.01032       18.32143      -13.35946
H          8.45136       18.12598      -14.22364
H          8.20960       19.27342      -13.17975
O          8.20185       15.30499      -14.54492
H          7.58904       14.69510      -15.02594
H          9.10713       15.07553      -14.86854

Ca 1.0



