%chk=apoCaM-CA-Ng.loop4.water3.frame336.chk
%nprocshared=20
%mem=10GB
%nosave
#b3lyp/svp scf=(tight,noincore,xqc) Test 
#IOP(5/87=12) Density=Current Pop=(MK,readradii) iop(6/33=2) iop(6/42=6)

apoCaM-CA-Ng.loop4.water3.frame336 

   -3  1 
C         77.32517       62.40297       49.91116
C         77.90836       61.19161       49.25486
O         79.04307       60.86559       49.54401
H         76.42279       62.10928       50.48713
H         78.05917       62.85391       50.61521
H         77.05312       63.15359       49.14264
N         77.16805       60.45057       48.38390
C         77.61862       59.20761       47.76419
C         77.96075       58.17566       48.81807
O         79.08938       57.72730       48.88628
C         78.64348       59.41721       46.61416
C         79.96627       60.09700       46.87638
O         80.97474       59.47641       47.52177
O         80.20078       61.15634       46.31654
H         76.19954       60.75029       48.19487
H         76.74839       58.77004       47.22302
H         78.11020       60.02957       45.85289
H         78.85335       58.43480       46.13537
N         76.95836       57.73962       49.64174
C         76.99606       56.68254       50.65737
C         77.28847       55.32931       50.01235
O         76.36734       54.53898       49.86051
C         77.90552       57.01246       51.87669
C         77.73257       55.98087       53.02851
C         77.66280       58.44115       52.39598
C         76.34271       55.93652       53.68194
H         76.03390       58.17950       49.50707
H         75.95409       56.63560       51.04154
H         78.96794       56.97785       51.55446
H         78.46567       56.22635       53.82082
H         77.96582       54.96144       52.66100
H         76.60649       58.59430       52.69592
H         78.32008       58.64684       53.26740
H         77.90723       59.18563       51.61085
H         76.34891       55.19190       54.50559
H         76.07039       56.91671       54.12190
H         75.55882       55.62866       52.96218
N         78.53763       55.01250       49.57078
C         78.83702       53.86358       48.73305
C         79.14426       52.59932       49.53370
O         78.56128       51.57698       49.20233
C         79.97326       54.23127       47.74698
C         80.19256       53.17166       46.70365
O         81.39468       52.57736       46.58606
O         79.29014       52.86416       45.94054
H         79.30517       55.66968       49.73811
H         77.95860       53.67250       48.07290
H         80.92317       54.42010       48.28233
H         79.69962       55.17030       47.21610
N         80.03900       52.52913       50.56839
C         80.67503       53.68461       51.18164
C         81.57527       53.30655       52.34691
O         81.13074       52.51697       53.16812
H         80.21269       51.59921       50.98168
H         79.87717       54.31777       51.60923
H         81.20233       54.26718       50.42858
N         82.80693       53.86407       52.58627
C         83.46599       54.91585       51.81245
C         82.54250       56.13426       51.72121
O         82.12643       56.48920       50.62751
C         84.00758       54.35101       50.47769
C         84.91374       55.32858       49.78128
O         85.99809       55.81762       50.41463
O         84.69603       55.65366       48.62725
H         83.29572       53.56326       53.44456
H         84.38652       55.21669       52.35566
H         83.20722       54.02185       49.78965
H         84.62590       53.45854       50.71472
N         82.10822       56.80008       52.83580
C         82.65296       56.61277       54.17122
C         81.78497       55.76256       55.05803
O         80.69012       55.37579       54.67724
H         81.38752       57.52389       52.72650
H         82.83751       57.60500       54.63833
H         83.63905       56.12120       54.12386
N         82.28993       55.35868       56.25615
C         81.60644       54.42213       57.14238
C         80.48755       55.07099       57.93294
O         79.71728       54.33316       58.53283
C         82.62313       53.80681       58.13249
C         83.67637       52.90846       57.45510
C         83.11754       51.55602       57.06722
N         83.61635       50.42611       57.62389
O         82.21375       51.47219       56.25002
H         83.24988       55.65701       56.49126
H         81.15375       53.61959       56.52543
H         82.11861       53.20706       58.92139
H         83.14092       54.65239       58.63965
H         84.49412       52.74788       58.18901
H         84.12180       53.41060       56.56982
H         84.38412       50.46601       58.31026
H         83.23390       49.50331       57.36989
N         80.35329       56.42453       58.03057
C         79.28901       57.06183       58.80352
C         79.82757       57.81745       60.01006
O         79.02112       58.38573       60.73273
C         78.43832       57.98941       57.89530
C         77.78611       57.18626       56.76433
C         79.24397       59.16048       57.31102
H         81.04375       57.03021       57.56481
H         78.59936       56.29594       59.22226
H         77.61853       58.42104       58.51178
H         78.55960       56.73715       56.10837
H         77.15732       56.37232       57.18362
H         77.13817       57.84709       56.15137
H         79.69115       59.77714       58.11882
H         80.05454       58.80702       56.64219
H         78.56552       59.80946       56.72014
N         81.15999       57.85895       60.30739
C         81.69694       58.57854       61.45457
C         82.64915       59.68209       61.00553
O         83.20549       60.34298       61.87407
C         82.40771       57.55859       62.37491
C         82.83003       58.14511       63.70148
N         81.90558       58.60594       64.57768
O         84.01550       58.18724       63.99461
H         81.83761       57.35849       59.71480
H         80.87834       59.05712       62.03304
H         83.29017       57.14424       61.83918
H         81.71888       56.71521       62.59707
H         80.89986       58.55916       64.35823
H         82.19322       58.99742       65.48697
N         82.88108       59.96730       59.68402
C         83.86019       60.97239       59.27088
C         83.77074       61.33893       57.78708
O         83.15674       60.62662       57.00781
C         85.29155       60.46458       59.62944
C         85.57311       59.10799       59.00025
C         85.79561       58.99233       57.62083
C         85.58720       57.94034       59.78540
C         85.99129       57.74382       57.02561
C         85.78507       56.68732       59.19121
C         85.97886       56.58375       57.80956
O         86.15205       55.36995       57.24813
H         82.35380       59.46570       58.95603
H         83.62589       61.91059       59.82232
H         85.35324       60.36125       60.73168
H         86.07926       61.19544       59.34716
H         85.81977       59.87393       57.00876
H         85.42316       57.99463       60.85362
H         86.14812       57.68019       55.95590
H         85.77766       55.79451       59.80370
H         86.27286       55.25662       56.29413
N         84.37621       62.48794       57.36199
C         84.53375       63.00320       55.99491
C         83.27116       63.25964       55.17566
O         83.42808       63.72856       54.05559
C         85.55544       62.17537       55.17364
C         85.01312       60.90538       54.48996
C         86.09673       60.25368       53.68351
O         85.98200       60.14588       52.47357
O         87.20418       59.78740       54.29086
H         84.81503       63.06801       58.09549
H         85.02510       63.99636       56.11761
H         86.43657       61.95063       55.81382
H         85.91452       62.83144       54.34808
H         84.18010       61.18072       53.81141
H         84.62723       60.16578       55.20584
N         82.01130       62.98016       55.61298
C         80.83761       63.10196       54.74973
C         79.90210       64.20358       55.21800
O         78.87816       64.40031       54.57624
C         80.08953       61.75238       54.71212
C         80.91715       60.55078       54.21957
C         81.26712       60.60740       52.76105
O         82.01958       61.46053       52.32139
O         80.75013       59.67543       51.94060
H         81.85987       62.65185       56.57576
H         81.12489       63.37241       53.71205
H         79.18009       61.83130       54.07550
H         79.76094       61.53247       55.74819
H         80.29273       59.64441       54.37010
H         81.83785       60.42045       54.82124
N         80.18148       64.98616       56.29886
C         79.29523       66.05015       56.71497
H         78.30045       65.63344       56.97973
H         79.71597       66.56748       57.60274
H         79.18185       66.78958       55.89334
H         81.04424       64.84652       56.84298
Ca        81.21762       59.43268       49.75841
O         84.29644       59.10799       50.00227
H         83.97113       59.64198       50.76954
H         84.37847       58.18896       50.35965
O         82.35881       62.23276       49.16437
H         81.65994       62.30885       49.86095
H         81.87815       62.40915       48.31739
O         82.72295       57.32782       47.69555
H         82.49009       57.06878       46.76936
H         83.56535       57.84087       47.60552

Ca 1.0



