%chk=apoCaM-CA-Ng.loop2.water3.frame301.chk
%nprocshared=20
%mem=10GB
%nosave
#b3lyp/svp scf=(tight,noincore,xqc) Test 
#IOP(5/87=12) Density=Current Pop=(MK,readradii) iop(6/33=2) iop(6/42=6)

apoCaM-CA-Ng.loop2.water3.frame301 

   -2  1 
C         63.26120       56.03872       14.92003
C         62.28310       57.17119       14.82052
O         61.18441       57.05869       15.34291
H         64.18217       56.38091       15.43626
H         62.82546       55.18899       15.48841
H         63.52225       55.68627       13.90015
N         62.62773       58.31364       14.16479
C         61.71501       59.43971       13.99810
C         60.56135       59.03880       13.09579
O         60.81043       58.67607       11.95325
C         62.46696       60.63859       13.38222
C         61.57580       61.84001       13.22559
O         61.38159       62.32030       12.12032
O         60.99000       62.39355       14.30451
H         63.58330       58.38119       13.77973
H         61.34600       59.75178       15.00094
H         62.88498       60.34913       12.39169
H         63.31502       60.91796       14.04390
N         59.26860       59.08864       13.53460
C         58.14472       58.72754       12.67228
C         58.23917       57.28858       12.19985
O         57.71830       56.98641       11.13548
C         56.80510       58.96181       13.37238
H         59.08217       59.40656       14.49825
H         58.18285       59.39154       11.77936
H         56.72146       58.32175       14.27660
H         56.71932       60.02726       13.67474
H         55.96556       58.72585       12.68346
N         58.92548       56.35785       12.92461
C         59.20889       55.00488       12.47344
C         57.91628       54.23921       12.25266
O         57.66462       53.78155       11.14623
C         60.13934       55.08227       11.23055
C         60.79793       53.78220       10.87319
O         61.65727       53.75585       10.00695
O         60.53222       52.67234       11.57640
H         59.30771       56.62558       13.83992
H         59.77899       54.49712       13.28520
H         60.97050       55.77672       11.48575
H         59.60595       55.49318       10.34837
N         57.02569       54.10111       13.27890
C         55.71406       53.49213       13.11319
C         55.44595       52.31250       14.02231
O         54.34685       51.78383       13.92706
H         57.26011       54.50250       14.20025
H         55.55772       53.15158       12.06817
H         54.94885       54.26833       13.32976
N         56.35338       51.84139       14.92884
C         56.06522       50.71534       15.81725
C         56.01649       51.17169       17.26460
O         56.24948       52.33948       17.54848
C         57.09390       49.59021       15.59415
C         56.97238       49.01572       14.20355
N         58.00392       49.07881       13.33276
O         55.92784       48.47963       13.86302
H         57.27499       52.29504       15.01581
H         55.05395       50.29870       15.61375
H         56.92504       48.75550       16.30695
H         58.11516       49.98928       15.77403
H         58.88668       49.53280       13.59914
H         57.91631       48.67746       12.38713
N         55.63378       50.28978       18.22947
C         55.38760       50.64739       19.61528
C         56.24475       49.83398       20.54765
O         56.29299       48.61946       20.40108
H         55.43170       49.31503       17.95836
H         54.32503       50.40610       19.83154
H         55.52469       51.73382       19.80518
N         56.89392       50.42919       21.58978
C         57.67154       49.65649       22.55439
C         58.99260       49.17732       21.96210
O         59.55185       48.22606       22.48686
C         57.86929       50.40411       23.90108
C         58.68538       51.70147       23.80157
O         56.62518       50.65632       24.50853
H         56.75925       51.44037       21.73318
H         57.06976       48.75389       22.81019
H         58.42667       49.72426       24.58221
H         56.16107       51.36074       23.98568
H         58.19203       52.45250       23.15247
H         58.80477       52.14195       24.81400
H         59.68978       51.49383       23.39955
N         59.55826       49.80488       20.88675
C         60.77212       49.33586       20.21479
C         60.50316       49.15110       18.73146
O         59.42158       49.48764       18.26969
C         62.00927       50.26550       20.44765
C         61.99850       51.66638       19.76680
C         62.36331       50.35783       21.93746
C         61.00114       52.70691       20.28236
H         59.08649       50.63207       20.51209
H         61.05088       48.33804       20.61932
H         62.87298       49.74255       19.98224
H         61.85632       51.54984       18.67102
H         63.01064       52.10376       19.91506
H         62.49633       49.34078       22.36428
H         63.31452       50.91483       22.07415
H         61.57274       50.87218       22.50567
H         61.20031       53.67264       19.77149
H         59.95946       52.44957       20.03863
H         61.11410       52.86898       21.37349
N         61.46543       48.62500       17.91787
C         61.29276       48.47835       16.48032
C         61.37960       47.00820       16.12473
O         62.15020       46.63360       15.25701
C         62.38628       49.32659       15.79241
C         62.23500       49.44326       14.30662
O         61.29326       48.93298       13.72272
O         63.09472       50.20820       13.61747
H         62.36191       48.32188       18.32623
H         60.29203       48.84982       16.17256
H         63.39100       48.91723       16.03821
H         62.33074       50.36133       16.19656
N         60.65429       46.10165       16.83497
C         60.81802       44.65679       16.69789
C         62.29322       44.28904       16.87904
O         62.85746       44.67543       17.89450
C         59.99792       43.95100       17.80633
C         60.25851       42.46431       17.83465
C         59.78961       41.62679       16.81082
C         61.01732       41.91288       18.88242
C         60.08644       40.25942       16.83162
C         61.31797       40.55019       18.89510
C         60.85419       39.72328       17.87002
H         60.02669       46.45989       17.57190
H         60.44582       44.32968       15.70544
H         58.90968       44.15212       17.69965
H         60.31569       44.39009       18.77881
H         59.20518       42.03347       15.99489
H         61.39877       42.54239       19.67725
H         59.72937       39.61628       16.03829
H         61.91783       40.13899       19.69667
H         61.09290       38.66807       17.88024
N         62.98458       43.51806       15.97908
C         64.35169       43.08037       16.20476
C         65.37440       44.11477       15.75114
O         66.55405       43.91060       16.00131
C         64.43495       41.80785       15.35782
C         63.61638       42.20266       14.13961
C         62.42566       42.91178       14.78398
H         64.52607       42.82644       17.27432
H         65.46294       41.44051       15.15236
H         63.87164       41.00131       15.88262
H         64.20998       42.94997       13.56690
H         63.33969       41.37574       13.45193
H         61.98753       43.64846       14.07666
H         61.66302       42.17119       15.08867
N         65.00948       45.21992       15.03723
C         65.96551       46.20777       14.55112
C         66.58210       47.01154       15.69645
O         67.53823       47.73249       15.45067
C         65.25709       47.13662       13.53173
C         66.20073       48.04931       12.73308
C         65.43309       48.88471       11.74691
O         65.49427       50.22853       11.81181
O         64.76038       48.35375       10.87714
H         64.02779       45.32393       14.76356
H         66.76258       45.64950       14.01108
H         64.49465       47.74522       14.06206
H         64.73012       46.49069       12.79385
H         66.93434       47.42511       12.17864
H         66.75035       48.73353       13.40789
N         66.08463       46.95461       16.96885
C         66.63183       47.71547       18.07466
H         67.50272       48.33628       17.77724
H         65.84653       48.38817       18.47976
H         66.95567       47.01870       18.87552
H         65.26640       46.36826       17.18339
Ca        62.12211       51.12330       11.83379
O         64.38758       51.45678        9.06052
H         64.58682       51.15128        8.13995
H         65.07252       52.14734        9.24617
O         64.40919       53.43506       11.95276
H         64.93192       53.76279       12.72713
H         64.62918       54.06406       11.22033
O         61.22696       50.24460        9.08983
H         61.34321       50.44470        8.12734
H         60.25470       50.34251        9.25017

Ca 1.0



