%chk=apoCaM-CA-Ng.loop4.water4.frame646.chk
%nprocshared=20
%mem=10GB
%nosave
#b3lyp/svp scf=(tight,noincore,xqc) Test 
#IOP(5/87=12) Density=Current Pop=(MK,readradii) iop(6/33=2) iop(6/42=6)

apoCaM-CA-Ng.loop4.water4.frame646 

   -3  1 
C        -27.99589       68.73405        7.48689
C        -28.01905       70.05196        6.77814
O        -28.33458       70.10136        5.59824
H        -26.97507       68.54229        7.87986
H        -28.71534       68.75257        8.33236
H        -28.26656       67.91559        6.79716
N        -27.67801       71.17588        7.46334
C        -27.63021       72.52268        6.90438
C        -29.01928       72.95885        6.44193
O        -29.16504       73.50476        5.35571
C        -26.57991       72.60982        5.77182
C        -25.29686       71.89635        6.11557
O        -25.00921       70.88180        5.50110
O        -24.46362       72.30999        7.08931
H        -27.42269       71.07579        8.45862
H        -27.31632       73.19724        7.73208
H        -26.38414       73.66533        5.48554
H        -26.99832       72.10043        4.87642
N        -30.10586       72.67664        7.21578
C        -31.48083       73.00403        6.82457
C        -31.71103       74.51404        6.88612
O        -30.89929       75.18939        7.50455
C        -32.51186       72.21945        7.70629
C        -32.36792       72.53694        9.22500
C        -32.39485       70.71246        7.40492
C        -33.41526       71.85114       10.10281
H        -29.93370       72.14449        8.07693
H        -31.60524       72.66878        5.77580
H        -33.53412       72.51028        7.40847
H        -32.47422       73.63237        9.37406
H        -31.37722       72.23449        9.61659
H        -33.18306       70.13387        7.92595
H        -32.54254       70.53513        6.31732
H        -31.40152       70.31349        7.69665
H        -33.26329       72.15874       11.15931
H        -34.43822       72.14327        9.78808
H        -33.31256       70.74749       10.06485
N        -32.76122       75.16357        6.28988
C        -33.77854       74.58280        5.40839
C        -33.12651       74.00792        4.16174
O        -33.36553       72.85366        3.83423
C        -34.80346       75.67195        5.01236
C        -35.93288       75.11640        4.18708
O        -36.72843       74.15318        4.69141
O        -36.14453       75.54671        3.06473
H        -32.80867       76.18398        6.44592
H        -34.35306       73.80273        5.94235
H        -34.29380       76.48968        4.45618
H        -35.24614       76.10880        5.93428
N        -32.23693       74.75839        3.45407
C        -31.50027       74.26616        2.30514
C        -32.34743       74.25470        1.06203
O        -32.86605       75.30222        0.70177
H        -32.00548       75.70304        3.79603
H        -31.04729       73.27604        2.53359
H        -30.66629       74.96972        2.09841
N        -32.48854       73.11964        0.32235
C        -33.22976       73.07653       -0.93359
C        -34.45290       72.17503       -0.85268
O        -35.17470       72.11435       -1.83782
C        -32.26827       72.72952       -2.10294
C        -31.43341       71.48659       -1.92045
O        -30.09090       71.58575       -1.87192
O        -31.94801       70.38646       -1.85285
H        -32.02988       72.25422        0.64731
H        -33.64431       74.07920       -1.17762
H        -31.55858       73.57884       -2.20686
H        -32.83551       72.65652       -3.05681
N        -34.79510       71.48386        0.27970
C        -36.00082       70.66438        0.36913
C        -35.99222       69.45152       -0.54902
O        -36.98624       68.74237       -0.59200
H        -34.21454       71.55944        1.12661
H        -36.87954       71.30227        0.13245
H        -36.11628       70.29569        1.41169
N        -34.89738       69.14505       -1.29640
C        -34.75889       68.02598       -2.21309
C        -34.80408       66.69858       -1.48555
O        -35.31809       65.72579       -2.02041
C        -35.70922       68.14256       -3.42679
C        -35.47422       69.46871       -4.17237
C        -36.29501       69.57234       -5.43004
N        -37.17579       70.58626       -5.60259
O        -36.14498       68.74467       -6.31633
H        -34.06624       69.72707       -1.20420
H        -33.72183       68.07665       -2.61609
H        -36.77087       68.07493       -3.10409
H        -35.49971       67.29974       -4.12098
H        -34.40261       69.54983       -4.45513
H        -35.71929       70.31285       -3.49771
H        -37.31063       71.30338       -4.87483
H        -37.72024       70.66154       -6.47464
N        -34.22350       66.59073       -0.25574
C        -34.06857       65.33399        0.46518
C        -32.62818       65.12754        0.94316
O        -32.37963       64.08023        1.52587
C        -35.03912       65.27802        1.68376
C        -34.76831       66.38404        2.71980
C        -36.50355       65.33940        1.22863
H        -33.89229       67.45178        0.20033
H        -34.32202       64.47997       -0.20182
H        -34.89910       64.29747        2.19203
H        -34.92525       67.39304        2.28464
H        -35.45369       66.26935        3.58627
H        -33.73106       66.31459        3.10532
H        -36.72027       64.51100        0.52127
H        -37.18022       65.23081        2.10326
H        -36.72627       66.30593        0.73075
N        -31.65468       66.08992        0.82251
C        -30.36269       65.99371        1.49866
C        -29.21127       66.16248        0.50645
O        -29.45747       66.43151       -0.66179
C        -30.39473       67.03755        2.64790
C        -29.43573       66.79765        3.79277
N        -29.90873       66.38199        4.99415
O        -28.23984       66.99553        3.65742
H        -31.84899       66.97905        0.34462
H        -30.26690       64.98807        1.96279
H        -31.40827       66.95262        3.09530
H        -30.31579       68.07568        2.25972
H        -30.91536       66.21945        5.14622
H        -29.26811       66.20177        5.77866
N        -27.92583       65.93660        0.89720
C        -26.77305       65.94557       -0.01084
C        -25.52317       65.39980        0.67859
O        -25.57718       65.09989        1.86460
C        -26.48463       67.33701       -0.63531
C        -25.81444       68.33859        0.28364
C        -26.48804       68.91645        1.37239
C        -24.48402       68.72088        0.02354
C        -25.84384       69.87297        2.17207
C        -23.84323       69.66310        0.82553
C        -24.51932       70.25144        1.89296
O        -23.88440       71.18544        2.62760
H        -27.79410       65.63303        1.86584
H        -27.01735       65.24901       -0.84338
H        -27.39426       67.78566       -1.08389
H        -25.79989       67.15254       -1.49082
H        -27.51257       68.64520        1.58883
H        -23.93539       68.29188       -0.80552
H        -26.37625       70.32413        2.99987
H        -22.82055       69.94689        0.60873
H        -24.32365       71.67691        3.33170
N        -24.35231       65.23308       -0.00512
C        -23.16134       64.68434        0.63119
C        -22.02414       65.70332        0.60150
O        -21.39622       65.84269       -0.43860
C        -22.77384       63.34789       -0.02683
C        -23.88679       62.30207        0.16982
C        -23.53880       60.99689       -0.47962
O        -23.37606       60.93552       -1.68781
O        -23.42929       59.88049        0.26545
H        -24.30324       65.48154       -1.00462
H        -23.37960       64.42772        1.67457
H        -21.84086       62.96354        0.44177
H        -22.58774       63.50828       -1.11192
H        -24.84282       62.66351       -0.26598
H        -24.04008       62.13834        1.25984
N        -21.72005       66.51414        1.66759
C        -22.51169       66.56326        2.89587
C        -22.40314       65.30081        3.73358
O        -21.56725       64.45126        3.45512
C        -22.19846       67.80822        3.75303
C        -20.80130       67.85927        4.40257
C        -20.77501       69.04636        5.32591
O        -21.64027       69.07013        6.36096
O        -20.03792       69.99440        5.11173
H        -20.96328       67.20446        1.54181
H        -23.57010       66.68565        2.57852
H        -22.96221       67.84664        4.55933
H        -22.33659       68.72016        3.13308
H        -20.01930       67.94345        3.61750
H        -20.60615       66.94705        5.00578
N        -23.27240       65.10888        4.76589
C        -23.29628       63.91861        5.58835
H        -24.29084       63.43334        5.49161
H        -22.51900       63.18375        5.29337
H        -23.13732       64.20208        6.64911
H        -23.98046       65.83048        4.96821
Ca       -22.70844       70.87450        7.21938
O        -21.57171       72.57757        4.99782
H        -22.46795       72.81575        4.65256
H        -21.07968       72.24924        4.20426
O        -21.77601       73.55741        8.51124
H        -21.24005       73.56686        7.67877
H        -22.61712       74.02044        8.26938
O        -20.33566       70.40428        9.10050
H        -20.43047       69.92532        9.96185
H        -19.55799       71.00270        9.23135
O        -22.36980       67.70452        8.83086
H        -22.70021       66.77712        8.72791
H        -21.40722       67.64988        8.60456

Ca 1.0



