%chk=apoCaM-CA-Ng.loop2.water4.frame1383.chk
%nprocshared=20
%mem=10GB
%nosave
#b3lyp/svp scf=(tight,noincore,xqc) Test 
#IOP(5/87=12) Density=Current Pop=(MK,readradii) iop(6/33=2) iop(6/42=6)

apoCaM-CA-Ng.loop2.water4.frame1383 

   -2  1 
C          7.91449       54.55525       38.59354
C          8.88167       54.31807       39.72333
O          9.96168       53.82720       39.42754
H          6.96206       55.03089       38.87183
H          8.40239       55.22187       37.85038
H          7.68705       53.58715       38.10156
N          8.65370       54.63792       41.03186
C          7.44210       55.21697       41.61318
C          6.92016       54.39581       42.79318
O          5.94540       54.81879       43.40000
C          7.70754       56.68309       42.03048
C          8.88339       56.87815       42.94793
O          8.71443       57.39507       44.17578
O         10.01450       56.63481       42.55946
H          9.43761       54.46819       41.67953
H          6.61001       55.25703       40.89066
H          6.79096       57.09167       42.51053
H          7.89607       57.28807       41.11787
N          7.48592       53.21015       43.16485
C          7.03811       52.41958       44.30276
C          8.22287       52.22582       45.22876
O          8.67526       51.10150       45.40390
C          6.48020       51.08368       43.78834
H          8.27141       52.82299       42.62308
H          6.22045       52.92167       44.86526
H          6.12639       50.46131       44.63845
H          5.61997       51.26812       43.11014
H          7.25661       50.51969       43.22719
N          8.80390       53.30036       45.84060
C         10.04981       53.17864       46.59336
C         10.34013       54.41425       47.44438
O         10.39106       55.52138       46.93501
C         11.21826       52.83700       45.63324
C         11.37108       53.78860       44.47217
O         11.23033       53.38027       43.33051
O         11.69604       55.07684       44.67039
H          8.36785       54.22981       45.73320
H          9.95418       52.32782       47.30304
H         11.03772       51.82576       45.21105
H         12.17065       52.78307       46.20136
N         10.55343       54.26713       48.78373
C         10.85198       55.35189       49.70617
C         12.16917       56.02781       49.40596
O         13.16592       55.33479       49.25260
H         10.50539       53.32086       49.19108
H         10.95038       54.91131       50.72232
H         10.01507       56.08117       49.73471
N         12.26187       57.39170       49.37468
C         13.52781       58.09160       49.14787
C         14.55876       57.74285       50.21088
O         14.21078       57.19292       51.24771
C         13.32880       59.62916       49.13959
C         12.41213       60.13822       48.05314
N         12.12661       61.45863       47.97516
O         11.92637       59.37050       47.23896
H         11.40547       57.94553       49.52989
H         13.92757       57.76724       48.16714
H         14.30944       60.13462       49.00404
H         12.91270       59.93682       50.12444
H         12.52495       62.12419       48.65376
H         11.50123       61.81703       47.23782
N         15.87250       58.03228       49.99431
C         16.93326       57.73927       50.94704
C         17.10679       56.25190       51.20947
O         16.36034       55.45524       50.66066
H         16.14051       58.48620       49.10676
H         16.73121       58.27819       51.89558
H         17.89024       58.11199       50.51906
N         18.11381       55.76693       51.99622
C         19.11503       56.58843       52.67219
C         20.45261       56.53602       51.94352
O         21.39329       57.15167       52.42167
C         19.31210       56.13082       54.14675
C         18.02365       56.16081       54.97810
O         19.92075       54.86221       54.21561
H         18.21283       54.74101       52.05415
H         18.80354       57.65306       52.69087
H         20.01145       56.84846       54.63042
H         19.24864       54.17559       53.97267
H         18.25666       55.87501       56.02719
H         17.58609       57.18051       54.97818
H         17.27740       55.44299       54.57746
N         20.61417       55.82673       50.78378
C         21.89669       55.66959       50.10478
C         21.80575       56.31100       48.72045
O         20.80046       56.09571       48.05888
C         22.25106       54.15907       50.00511
C         22.23884       53.51594       51.41794
C         23.62438       53.98009       49.32872
C         22.56547       52.02322       51.42393
H         19.80940       55.34431       50.36093
H         22.68336       56.14776       50.70939
H         21.48208       53.65328       49.37967
H         21.22355       53.62492       51.85677
H         22.95986       54.04194       52.08128
H         23.63671       54.46466       48.33496
H         24.42895       54.42708       49.94974
H         23.85209       52.91038       49.15549
H         21.86149       51.47083       50.76687
H         23.60782       51.84008       51.09351
H         22.47296       51.63328       52.45914
N         22.77489       57.11428       48.18007
C         24.09827       57.37791       48.74151
C         25.19553       57.02102       47.75073
O         25.01073       57.19419       46.55267
C         24.22151       58.84549       49.19097
C         23.99008       59.84800       48.09248
O         22.97347       60.72473       48.19108
O         24.73067       59.89363       47.12356
H         22.56373       57.55214       47.26851
H         24.29543       56.78582       49.64816
H         25.23181       59.01349       49.62634
H         23.47500       59.01962       49.99618
N         26.40022       56.57334       48.20395
C         27.56698       56.37919       47.35246
C         27.94326       54.91309       47.31007
O         28.10569       54.33310       48.37709
C         28.72121       57.25429       47.89776
C         29.95921       57.22623       47.02473
C         30.80782       56.10251       46.99206
C         30.28068       58.34309       46.23356
C         31.94423       56.09716       46.17630
C         31.41303       58.32989       45.41441
C         32.24388       57.20801       45.38488
H         26.51912       56.41246       49.21745
H         27.36102       56.74776       46.33048
H         28.99574       56.97802       48.94020
H         28.33131       58.29551       47.93390
H         30.60130       55.23269       47.60086
H         29.64769       59.22130       46.23960
H         32.59351       55.23100       46.15715
H         31.64520       59.19089       44.80137
H         33.12109       57.20122       44.75077
N         28.17245       54.24223       46.13455
C         28.18330       54.83611       44.79904
C         26.81329       55.18127       44.26268
O         26.61346       56.29248       43.79224
C         28.82054       53.75260       43.91319
C         29.69243       53.00572       44.90369
C         28.74288       52.91253       46.08962
H         28.86862       55.71328       44.80384
H         28.05251       53.02144       43.57302
H         29.33480       54.14890       43.01101
H         30.06818       52.02885       44.53395
H         30.55437       53.65149       45.18336
H         27.93128       52.18733       45.85232
H         29.25798       52.59907       47.02221
N         25.82808       54.24140       44.27033
C         24.54633       54.41777       43.60642
C         24.74643       54.16228       42.11739
O         25.16324       53.06360       41.77567
C         23.51722       53.40769       44.15989
C         23.23620       53.65087       45.65006
C         22.27367       52.63649       46.19447
O         22.56725       51.45138       46.19892
O         21.08950       53.03060       46.69933
H         26.02287       53.33267       44.71858
H         24.14852       55.43246       43.82056
H         23.89969       52.37173       44.01742
H         22.56148       53.50842       43.59918
H         22.81250       54.67126       45.77947
H         24.17793       53.58382       46.23400
N         24.49343       55.08798       41.15123
C         24.01055       56.42287       41.41722
H         23.02504       56.37801       41.92548
H         24.74083       56.97447       42.04373
H         23.88969       56.97272       40.45952
H         24.65777       54.82650       40.16609
Ca        10.60775       57.80502       45.32288
O         12.95458       58.76374       43.42080
H         12.96387       59.75359       43.41884
H         13.90755       58.50831       43.50269
O          9.94986       60.44417       44.14151
H         10.43770       60.31753       43.28943
H          8.99896       60.30203       43.90535
O         13.64973       56.90999       45.73439
H         14.54894       57.30327       45.86424
H         13.60183       56.16835       46.38875
O          8.95760       58.89936       47.53310
H          8.45654       59.52515       46.95183
H          8.38745       58.09135       47.58065

Ca 1.0



