%chk=apoCaM-CA-Ng.loop3.water3.frame692.chk
%nprocshared=20
%mem=10GB
%nosave
#b3lyp/svp scf=(tight,noincore,xqc) Test 
#IOP(5/87=12) Density=Current Pop=(MK,readradii) iop(6/33=2) iop(6/42=6)

apoCaM-CA-Ng.loop3.water3.frame692 

   0  1 
C         96.96033       79.14504      104.76177
C         98.37863       79.45524      105.14210
O         98.69966       80.61251      105.37035
H         96.34487       80.06949      104.73069
H         96.93153       78.65683      103.76594
H         96.52172       78.45703      105.51649
N         99.28241       78.44401      105.26221
C        100.65007       78.64789      105.72776
C        101.43529       79.50527      104.75534
O        101.54418       79.13924      103.59273
C        101.32966       77.28676      105.97564
C        102.57606       77.40085      106.81209
O        103.16830       76.39023      107.15100
O        103.01001       78.59925      107.24594
H         98.95603       77.48283      105.07440
H        100.59501       79.15873      106.70380
H        101.53137       76.77503      105.01011
H        100.63504       76.64825      106.56078
N        101.97770       80.69066      105.16098
C        102.62133       81.61242      104.23589
C        103.90532       81.01670      103.65518
O        104.28559       81.40938      102.56185
C        102.84939       82.98896      104.91698
C        102.97112       84.14654      103.91032
C        103.14232       85.50160      104.62015
C        103.08843       86.66229      103.61284
N        103.33455       87.94790      104.26739
H        101.86919       80.97504      106.14316
H        101.88193       81.77093      103.41843
H        103.71932       82.93813      105.60838
H        101.94744       83.22867      105.52368
H        102.03095       84.17742      103.31445
H        103.82532       83.98241      103.22157
H        104.11718       85.50645      105.15390
H        102.32901       85.65082      105.36555
H        102.08346       86.68293      103.13261
H        103.85187       86.50866      102.81956
H        102.62533       88.12041      105.01642
H        104.29538       87.95902      104.68039
H        103.26714       88.71208      103.55622
N        104.63253       80.07875      104.34480
C        105.84471       79.43653      103.82509
C        105.79619       77.89948      103.89477
O        106.78112       77.27766      103.52052
C        107.10133       79.99595      104.53658
C        107.21929       79.72190      106.00902
O        106.36086       79.10426      106.60695
O        108.29986       80.16302      106.67914
H        104.33284       79.83298      105.29821
H        105.98105       79.70309      102.75405
H        107.12663       81.09698      104.39020
H        108.00248       79.56884      104.04519
N        104.69071       77.21232      104.31396
C        104.60454       75.75323      104.32117
C        105.40460       75.04299      105.40895
O        105.42499       73.82073      105.37664
H        103.83728       77.73319      104.54216
H        104.92002       75.37830      103.32246
H        103.54537       75.44987      104.46147
N        106.07881       75.70774      106.39381
C        106.93046       75.04597      107.38576
C        106.54774       75.39400      108.82084
O        106.44616       76.56374      109.15663
C        108.38759       75.47059      107.14734
C        108.87443       74.98520      105.80495
N        109.26913       75.85894      104.85196
O        108.91171       73.78466      105.57673
H        106.03987       76.73170      106.41375
H        106.89633       73.93891      107.27632
H        109.04276       75.02510      107.92820
H        108.46568       76.57786      107.22189
H        109.24073       76.87454      105.02106
H        109.59748       75.51642      103.93697
N        106.44365       74.40201      109.75178
C        106.24685       74.62292      111.17801
C        104.86311       75.12063      111.51566
O        103.89710       74.50168      111.09182
H        106.60021       73.42716      109.45339
H        107.04006       75.29264      111.57922
H        106.35922       73.64340      111.69197
N        104.68842       76.18096      112.35903
C        103.36471       76.62966      112.79710
C        102.58937       77.27132      111.65095
O        103.08942       77.30420      110.53871
C        103.47586       77.60302      114.00001
C        104.16195       77.00184      115.20857
C        103.69210       75.80880      115.79088
C        105.26252       77.65426      115.78961
C        104.31866       75.27738      116.92242
C        105.87938       77.12693      116.92860
C        105.41307       75.93769      117.49747
O        106.01946       75.44334      118.59584
H        105.52511       76.63597      112.75690
H        102.78613       75.74861      113.14728
H        102.46090       77.88645      114.34255
H        103.99001       78.53357      113.68357
H        102.84154       75.28500      115.37551
H        105.63516       78.58104      115.37207
H        103.94828       74.35607      117.35500
H        106.71874       77.64704      117.37254
H        105.72596       74.62547      119.02239
N        101.33839       77.78713      111.86584
C        100.47341       78.39792      110.85480
C        101.08775       79.66002      110.25407
O        102.21310       79.60999      109.78456
C        100.07315       77.39186      109.73651
C         98.96537       77.97079      108.80695
C         99.63624       76.03220      110.30805
C         97.60789       78.24438      109.46423
H        100.93981       77.72211      112.81227
H         99.53756       78.67935      111.37847
H        100.96742       77.19447      109.10853
H         98.79505       77.26015      107.97063
H         99.30561       78.92966      108.37927
H         98.77327       76.14026      110.99537
H         99.36470       75.34264      109.48040
H        100.46773       75.55868      110.87038
H         96.91024       78.63992      108.69624
H         97.16706       77.31641      109.87886
H         97.68277       79.00818      110.26263
N        100.36313       80.81092      110.14573
C        100.88020       82.00805      109.47966
C        100.80051       83.26271      110.33092
O        101.45767       84.23498      109.98530
C        100.11437       82.22960      108.17220
O         98.75587       82.46388      108.43811
H         99.38410       80.79795      110.46497
H        101.95296       81.86474      109.21927
H        100.23384       81.31319      107.55933
H        100.53542       83.09189      107.61124
H         98.23613       82.00484      107.72812
N         99.96603       83.35551      111.40523
C         99.83993       84.57532      112.19104
C        101.10938       84.84961      112.97896
O        101.85040       83.90714      113.22394
C         98.67477       84.42316      113.16077
H         99.36128       82.56136      111.64803
H         99.62202       85.41430      111.49449
H         98.81741       83.53893      113.81689
H         98.62601       85.30702      113.80076
H         97.72244       84.30926      112.59756
N        101.48105       86.09478      113.40584
C        100.80020       87.35351      113.10172
C        100.96198       88.33079      114.26167
O        102.09540       88.52603      114.68064
C        101.47200       87.97052      111.87068
H        102.40415       86.16037      113.86405
H         99.73625       87.20015      112.84329
H        100.99124       88.93959      111.61595
H        102.55470       88.14561      112.05514
H        101.37146       87.28867      111.00009
N         99.94493       89.05416      114.81793
C         98.53676       89.01683      114.43640
C         97.90642       87.72087      114.88092
O         97.22255       87.09898      114.08124
C         97.74786       90.19485      115.06321
C         98.06532       91.56058      114.41940
C         99.46828       92.03734      114.65583
O        100.21832       92.23147      113.71233
O         99.89978       92.27260      115.90968
H        100.21445       89.71091      115.56562
H         98.42501       89.12913      113.33424
H         97.88106       90.22820      116.16687
H         96.66653       90.02182      114.86150
H         97.37428       92.32328      114.83724
H         97.86963       91.49183      113.32578
N         98.07513       87.26223      116.15242
C         97.51837       86.00463      116.60309
H         96.41270       86.01802      116.51159
H         97.92953       85.16748      116.00172
H         97.79282       85.82810      117.66458
H         98.63879       87.81098      116.81913
Ca       104.71133       78.75744      108.70938
O        107.34800       79.39336      109.91827
H        108.18593       78.89298      109.75367
H        107.55129       80.32303      109.64566
O        104.87138       81.79029      108.41546
H        104.91683       81.86374      109.40185
H        105.77015       82.06602      108.10490
O        104.71359       79.95227      111.43074
H        104.18345       80.54223      112.02280
H        105.39902       79.54947      112.02047

Ca 1.0



