%chk=apoCaM-CA-Ng.loop2.water4.frame613.chk
%nprocshared=20
%mem=10GB
%nosave
#b3lyp/svp scf=(tight,noincore,xqc) Test 
#IOP(5/87=12) Density=Current Pop=(MK,readradii) iop(6/33=2) iop(6/42=6)

apoCaM-CA-Ng.loop2.water4.frame613 

   -2  1 
C         68.35965       26.39152       75.02410
C         68.08160       27.82785       75.36391
O         67.12398       28.38157       74.84260
H         69.26167       26.01570       75.55167
H         67.49268       25.76033       75.30929
H         68.53267       26.29991       73.93073
N         68.89653       28.50802       76.21995
C         68.71271       29.92358       76.53572
C         67.39291       30.16764       77.26061
O         66.75910       29.21842       77.70239
C         69.91827       30.40785       77.37954
C         69.92679       31.88124       77.66879
O         69.97416       32.68850       76.75415
O         69.90186       32.31782       78.94267
H         69.70487       28.00773       76.62210
H         68.69957       30.47779       75.57103
H         70.85535       30.17604       76.82809
H         69.93500       29.84487       78.33890
N         66.91261       31.43835       77.40279
C         65.66698       31.75661       78.09643
C         64.46404       31.12937       77.37348
O         64.66784       30.58328       76.29753
C         65.54634       33.28480       78.20935
H         67.45982       32.21407       77.00575
H         65.76612       31.34792       79.11481
H         66.45750       33.68908       78.69964
H         65.44779       33.74089       77.20208
H         64.70756       33.61432       78.83684
N         63.18113       31.11069       77.85343
C         62.70182       31.69093       79.10806
C         63.42102       31.13718       80.33448
O         64.07961       30.11062       80.24942
C         61.18286       31.45038       79.26577
C         60.87111       29.98257       79.21430
O         60.03146       29.54834       78.44182
O         61.57237       29.13611       79.98421
H         62.48514       30.63594       77.25561
H         62.83832       32.78342       79.07455
H         60.61437       31.97385       78.46565
H         60.84146       31.85863       80.24162
N         63.30428       31.78425       81.52739
C         63.91770       31.35133       82.77619
C         65.43907       31.26845       82.71367
O         65.99992       31.40208       81.63783
H         62.74159       32.64906       81.55887
H         63.50802       30.36750       83.08699
H         63.62965       32.10196       83.53961
N         66.21694       31.09158       83.82355
C         65.72304       31.09587       85.19632
C         66.15596       29.87712       86.00183
O         65.70683       29.76695       87.13474
C         66.25194       32.37905       85.87016
C         65.81671       33.60822       85.10454
N         66.72160       34.36663       84.44075
O         64.63291       33.90743       85.06430
H         67.24023       31.07491       83.68764
H         64.61536       31.10880       85.22201
H         67.36328       32.32500       85.88465
H         65.90169       32.46427       86.92135
H         67.72223       34.12033       84.44069
H         66.41820       35.19072       83.90067
N         67.03394       28.93810       85.53135
C         67.44589       27.80103       86.34478
C         66.33873       26.78241       86.55022
O         66.50681       25.91367       87.39513
H         67.46805       29.04397       84.60522
H         67.79449       28.18794       87.32906
H         68.30509       27.27762       85.87396
N         65.19422       26.80560       85.80572
C         64.06429       25.89641       86.00137
C         63.83161       25.01914       84.78014
O         64.56438       25.13737       83.80587
C         62.81380       26.73035       86.35875
C         62.96566       27.32297       87.76688
O         62.64390       27.74807       85.40375
H         65.10287       27.51014       85.05865
H         64.26615       25.18432       86.83269
H         61.91419       26.07929       86.36665
H         61.87093       28.30168       85.68583
H         63.85971       27.97473       87.83732
H         62.06600       27.91673       88.02990
H         63.06254       26.49967       88.50751
N         62.87021       24.04334       84.80908
C         62.70726       23.03985       83.76068
C         61.27614       23.00926       83.22253
O         60.36127       22.73825       83.98959
C         63.08503       21.62788       84.31947
C         63.01913       20.56037       83.19018
C         64.48301       21.65138       84.97131
C         63.26790       19.12640       83.65876
H         62.28957       23.94208       85.65593
H         63.40686       23.25527       82.93484
H         62.35278       21.35723       85.11322
H         63.75303       20.80878       82.39256
H         62.00355       20.56285       82.74544
H         64.52053       22.38986       85.79893
H         64.72610       20.67362       85.43256
H         65.26291       21.90830       84.22388
H         62.52805       18.84378       84.43692
H         63.15467       18.43677       82.79536
H         64.29470       18.99524       84.05344
N         61.02927       23.17315       81.88885
C         59.74286       22.91847       81.24775
C         59.81182       21.75594       80.26645
O         58.77445       21.45466       79.69206
C         59.25509       24.16648       80.49264
C         58.76158       25.20869       81.44199
O         57.83429       24.96095       82.19418
O         59.26694       26.44136       81.42620
H         61.80345       23.43161       81.26994
H         58.97349       22.62515       81.99512
H         58.38214       23.91587       79.85234
H         60.05810       24.54486       79.81968
N         60.95218       21.03474       80.02794
C         60.97716       19.91150       79.09751
C         62.07264       20.12568       78.04806
O         62.97720       19.30898       77.95479
C         61.14441       18.61677       79.92768
C         60.79009       17.36628       79.15974
C         61.73746       16.35223       78.94701
C         59.47660       17.18880       78.68304
C         61.37613       15.18538       78.26264
C         59.12100       16.02340       78.00156
C         60.06994       15.02171       77.79078
H         61.82056       21.25038       80.53335
H         60.00922       19.83947       78.56237
H         60.44030       18.64979       80.78882
H         62.17266       18.57788       80.35050
H         62.75031       16.46070       79.31347
H         58.72121       17.94710       78.84894
H         62.10701       14.40412       78.10195
H         58.10719       15.89585       77.64319
H         59.79029       14.11732       77.26617
N         62.06706       21.22669       77.22769
C         63.09380       21.56351       76.24378
C         64.52795       21.38696       76.71301
O         65.31530       20.80302       75.98167
C         62.81341       23.04629       75.95907
C         61.30534       23.07284       75.99785
C         61.02428       22.23650       77.23920
H         62.91783       20.96359       75.32212
H         63.16794       23.67404       76.81055
H         63.27026       23.43117       75.02312
H         60.83253       24.07690       76.00754
H         60.94281       22.51874       75.10135
H         61.12960       22.84837       78.15896
H         60.00123       21.80937       77.15684
N         64.93136       21.86229       77.92539
C         66.30970       21.77996       78.41116
C         66.80638       20.35027       78.36254
O         67.78942       20.08615       77.68379
C         66.53338       22.31344       79.86096
C         66.08050       23.76149       80.13809
C         64.62253       23.88131       80.47841
O         64.08225       25.08991       80.71759
O         63.93944       22.88384       80.62584
H         64.20817       22.29963       78.49169
H         66.93739       22.40325       77.73474
H         67.63540       22.29131       80.01283
H         66.09994       21.64038       80.63403
H         66.35619       24.40894       79.28036
H         66.61194       24.13433       81.04060
N         66.16326       19.36947       79.05257
C         66.61045       17.99518       79.02271
H         67.63920       17.92428       79.43572
H         65.93347       17.36351       79.63551
H         66.60328       17.61719       77.97807
H         65.32549       19.60143       79.60772
Ca        60.95964       27.03666       80.14120
O         61.22808       28.60252       82.79419
H         62.16602       28.30785       82.90920
H         60.69306       27.92238       83.27460
O         61.39668       26.70132       77.14090
H         61.82693       27.58455       77.26349
H         62.02263       26.20095       76.56014
O         64.89817       27.82681       81.96645
H         65.54088       28.24411       81.34054
H         65.37513       27.02714       82.29836
O         64.74305       27.17397       78.77585
H         64.99359       26.32619       78.33015
H         64.44989       27.76481       78.03810

Ca 1.0



