%chk=apoCaM-CA-Ng.loop1.water4.frame138.chk
%nprocshared=20
%mem=10GB
%nosave
#b3lyp/svp scf=(tight,noincore,xqc) Test 
#IOP(5/87=12) Density=Current Pop=(MK,readradii) iop(6/33=2) iop(6/42=6)

apoCaM-CA-Ng.loop1.water4.frame138 

   0  1 
C         31.96369       65.34674      -19.93519
C         30.48743       65.08211      -19.97901
O         30.05577       64.16865      -20.66755
H         32.40299       65.37878      -20.95335
H         32.18096       66.31464      -19.43288
H         32.43659       64.54120      -19.33852
N         29.65274       65.85831      -19.24096
C         28.21541       65.65548      -19.13265
C         27.45545       66.58164      -20.06339
O         26.24676       66.64973      -19.93273
C         27.76064       65.71071      -17.63846
C         28.06901       66.97068      -16.85385
O         29.21937       67.34157      -16.68548
O         27.07787       67.62900      -16.22385
H         30.07302       66.63783      -18.72300
H         27.93710       64.63428      -19.47828
H         28.25256       64.87148      -17.10420
H         26.66293       65.53410      -17.58891
N         28.06599       67.20857      -21.11677
C         27.36287       68.05913      -22.07419
C         26.99226       67.27694      -23.33648
O         27.84695       66.53508      -23.80046
C         28.22705       69.28424      -22.44927
C         28.55906       70.19357      -21.23589
C         28.90804       71.64243      -21.65697
C         27.69892       72.47272      -22.16597
N         26.87922       73.02513      -21.08194
H         29.06240       67.02480      -21.30372
H         26.46513       68.47703      -21.61370
H         27.64304       69.84594      -23.19501
H         29.17106       68.98308      -22.96187
H         29.43156       69.73420      -20.71650
H         27.71957       70.23331      -20.51419
H         29.66974       71.58023      -22.46193
H         29.36191       72.19714      -20.80682
H         27.06726       71.88107      -22.84751
H         28.08366       73.33050      -22.75683
H         26.52816       72.28266      -20.43768
H         27.43946       73.72766      -20.54499
H         26.05975       73.52674      -21.49885
N         25.79656       67.38235      -24.01672
C         24.62570       68.21733      -23.71889
C         24.99258       69.69603      -23.65386
O         24.95802       70.25798      -22.56654
C         23.87963       67.74956      -22.44657
C         23.71242       66.25949      -22.36489
O         24.23349       65.65870      -21.44297
O         23.04558       65.54086      -23.27656
H         25.70521       66.81064      -24.87183
H         23.88523       68.08532      -24.53735
H         22.89934       68.27123      -22.37396
H         24.44079       68.03356      -21.55474
N         25.38173       70.43231      -24.73406
C         25.34090       70.01345      -26.13343
C         26.02529       71.05879      -27.01614
O         26.81452       71.83281      -26.49090
H         25.66406       71.40228      -24.53078
H         24.27681       69.90216      -26.41793
H         25.85034       69.03962      -26.28542
N         25.85941       71.15891      -28.36664
C         24.96073       70.36556      -29.20023
C         23.50212       70.75180      -28.97064
O         23.22844       71.64170      -28.17522
C         25.30013       70.59322      -30.69852
C         26.72224       70.22318      -31.03767
O         27.75075       70.98806      -30.62257
O         26.94929       69.24595      -31.73165
H         26.43168       71.87808      -28.83347
H         25.10816       69.28589      -28.97863
H         25.12360       71.65231      -30.99316
H         24.63348       69.96125      -31.31986
N         22.50364       70.14299      -29.68099
C         21.10506       70.51286      -29.54649
C         20.49618       70.04467      -28.25078
O         19.35643       70.40422      -27.98950
H         22.73551       69.41602      -30.37206
H         20.50995       70.03561      -30.35472
H         21.00896       71.61510      -29.65726
N         21.17411       69.22611      -27.39711
C         20.59316       68.72080      -26.16896
C         21.09609       69.53707      -24.98833
O         22.16353       70.12705      -25.04798
C         20.96190       67.24235      -25.97029
C         20.46232       66.29072      -27.06618
O         20.41857       66.82616      -24.75096
H         22.13684       68.93318      -27.61459
H         19.48290       68.80575      -26.20429
H         22.07856       67.19047      -25.96824
H         21.16529       66.57518      -24.16172
H         21.00859       65.32453      -26.97935
H         19.37886       66.07816      -26.94217
H         20.64191       66.69096      -28.08490
N         20.29738       69.66355      -23.89920
C         20.59447       70.47544      -22.71858
C         20.37618       69.71387      -21.40837
O         20.53342       70.32376      -20.36016
C         19.68097       71.73962      -22.71955
C         18.21399       71.37704      -23.08937
C         20.25380       72.81232      -23.65599
C         17.23085       72.52680      -22.94860
H         19.37722       69.20040      -23.94751
H         21.65987       70.79920      -22.70737
H         19.71663       72.18908      -21.70267
H         17.86197       70.54497      -22.44092
H         18.16681       71.03829      -24.14922
H         21.32266       72.99773      -23.41144
H         20.17394       72.50838      -24.71923
H         19.72538       73.77486      -23.49913
H         16.22037       72.16899      -23.24078
H         17.20607       72.87064      -21.89539
H         17.50166       73.36520      -23.62081
N         19.98311       68.41112      -21.38516
C         19.57282       67.68345      -20.18499
C         20.76052       67.01998      -19.47682
O         20.74504       65.81941      -19.26113
C         18.42625       66.68185      -20.56014
C         18.79487       65.68575      -21.68182
O         17.28902       67.38650      -20.98948
H         19.84868       67.95362      -22.28388
H         19.13914       68.39784      -19.44820
H         18.16547       66.08753      -19.65531
H         16.97368       67.93383      -20.22473
H         19.75501       65.18405      -21.48752
H         18.00277       64.91869      -21.78892
H         18.86457       66.17155      -22.67536
N         21.81430       67.76662      -19.04366
C         23.03700       67.22588      -18.45632
C         22.81860       66.34087      -17.23566
O         22.20638       66.76377      -16.26569
C         24.04060       68.36077      -18.10475
C         23.53892       69.37211      -17.07061
O         24.36302       69.08277      -19.26259
H         21.77716       68.77766      -19.18690
H         23.53522       66.61006      -19.23193
H         24.95556       67.88353      -17.67643
H         25.20664       68.71169      -19.61325
H         22.68045       69.94687      -17.47407
H         23.24462       68.89557      -16.11833
H         24.35631       70.08781      -16.84380
N         23.38491       65.09920      -17.20620
C         23.47464       64.29445      -15.98496
C         23.79153       62.82990      -16.29530
O         23.29398       61.96224      -15.59151
C         24.55813       64.92788      -15.06192
C         24.47920       64.64154      -13.54524
C         23.16067       65.14590      -12.92095
C         23.24391       65.24838      -11.38727
N         21.94995       65.62370      -10.81189
H         23.87027       64.80141      -18.05821
H         22.47679       64.32847      -15.50018
H         24.48930       66.03285      -15.13719
H         25.56755       64.65185      -15.44231
H         25.31886       65.21354      -13.08864
H         24.63331       63.56725      -13.30498
H         22.34459       64.45085      -13.20961
H         22.92007       66.16145      -13.30539
H         24.00074       66.01972      -11.11203
H         23.56427       64.27661      -10.95601
H         21.22626       64.91332      -11.06775
H         22.03175       65.65455       -9.76949
H         21.65344       66.56677      -11.15422
N         24.63820       62.48541      -17.31404
C         25.00201       61.12660      -17.67308
C         26.45043       60.94778      -17.29721
O         27.28004       61.74919      -17.70811
C         24.78868       60.87831      -19.18663
C         23.30558       60.90741      -19.57571
C         23.11126       60.45643      -21.00793
O         23.45592       61.17444      -22.10708
O         22.62279       59.35395      -21.19315
H         25.11019       63.21320      -17.86350
H         24.39587       60.37855      -17.11319
H         25.17561       59.85911      -19.42028
H         25.35712       61.61464      -19.79445
H         22.84425       61.89100      -19.36655
H         22.79455       60.16089      -18.92459
N         26.81452       59.93320      -16.46750
C         28.15647       59.76521      -15.95624
H         28.84551       60.56345      -16.30382
H         28.11481       59.80431      -14.84748
H         28.55596       58.78031      -16.27121
H         26.10456       59.25080      -16.16204
Ca        23.27305       63.35596      -22.73670
O         20.63779       61.31026      -23.34443
H         21.14140       60.92153      -22.59785
H         19.78038       60.82269      -23.31912
O         21.46187       63.25348      -20.81976
H         20.52980       63.10037      -20.53420
H         21.63287       64.22047      -20.71316
O         25.71984       63.17730      -23.69248
H         26.30567       63.43574      -22.93767
H         26.32080       62.83496      -24.39696
O         20.43662       63.72359      -24.45443
H         19.83050       63.11175      -24.93895
H         19.96863       64.58408      -24.52004

Ca 1.0



