%chk=apoCaM-CA-Ng.loop2.water4.frame779.chk
%nprocshared=20
%mem=10GB
%nosave
#b3lyp/svp scf=(tight,noincore,xqc) Test 
#IOP(5/87=12) Density=Current Pop=(MK,readradii) iop(6/33=2) iop(6/42=6)

apoCaM-CA-Ng.loop2.water4.frame779 

   -2  1 
C        108.99571        3.26170       -0.79078
C        109.69561        2.04657       -0.27353
O        110.89079        2.09865       -0.01600
H        108.08068        3.43614       -0.18669
H        109.64905        4.15529       -0.71453
H        108.70464        3.09801       -1.84928
N        108.97812        0.91460       -0.04789
C        109.56125       -0.29513        0.49832
C        109.33917       -0.34000        1.99887
O        108.21155       -0.45734        2.46303
C        108.96303       -1.50281       -0.22135
C        109.49099       -2.79470        0.32605
O        108.77267       -3.47579        1.23960
O        110.60085       -3.19029        0.01028
H        107.95931        0.94001       -0.20910
H        110.65712       -0.29867        0.31420
H        109.18552       -1.42540       -1.30785
H        107.85855       -1.47328       -0.09411
N        110.42406       -0.24095        2.81528
C        110.35564       -0.18038        4.26662
C        109.76408        1.13502        4.64607
O        110.02626        2.08583        3.92402
C        111.75828       -0.34234        4.84850
H        111.34576       -0.10535        2.37431
H        109.71014       -0.99644        4.64212
H        111.77544       -0.14035        5.93873
H        112.06201       -1.39475        4.67120
H        112.48636        0.33300        4.34749
N        108.96692        1.32261        5.73832
C        108.88009        0.43484        6.89590
C        107.48694        0.03287        7.34142
O        106.49986        0.61845        6.94786
C        109.60036        1.14780        8.07692
C        109.22642        2.59723        8.38026
O        109.91613        3.25559        9.32771
O        108.34166        3.19472        7.79024
H        108.51776        2.22976        5.81584
H        109.40415       -0.52100        6.70238
H        110.68219        1.15142        7.83679
H        109.45794        0.56948        9.01216
N        107.36497       -0.99298        8.22858
C        106.13348       -1.34552        8.91457
C        105.49763       -2.59013        8.34426
O        106.21258       -3.56547        8.16364
H        108.22015       -1.49892        8.50802
H        105.44679       -0.47923        8.96220
H        106.42452       -1.58343        9.95861
N        104.16513       -2.70231        8.06304
C        103.11608       -1.74904        8.41739
C        102.74878       -0.83757        7.25742
O        102.57695       -1.30887        6.14194
C        101.87482       -2.55970        8.85903
C        100.70960       -1.71318        9.30536
N         99.46290       -1.98468        8.85459
O        100.88155       -0.80521       10.10522
H        103.84837       -3.63151        7.74087
H        103.40271       -1.15574        9.31487
H        102.16940       -3.20403        9.71362
H        101.54562       -3.22408        8.02949
H         99.29293       -2.78594        8.22835
H         98.65841       -1.42079        9.16361
N        102.49831        0.48004        7.49872
C        101.93352        1.37708        6.49417
C        101.72061        2.80762        6.98240
O        100.91923        3.50894        6.37876
H        102.63209        0.80363        8.46299
H        100.94360        0.96090        6.19174
H        102.57069        1.41460        5.58690
N        102.43171        3.33271        8.02510
C        102.33756        4.72041        8.45218
C        103.11111        5.61143        7.52064
O        104.20849        5.27688        7.10812
C        102.72348        4.87993        9.94404
C        102.92755        6.35393       10.36032
O        101.68095        4.30844       10.69148
H        103.16244        2.77322        8.47793
H        101.27508        5.04944        8.41777
H        103.66541        4.34216       10.17292
H        101.93498        4.36505       11.64759
H        102.14397        7.01860        9.94273
H        102.91197        6.44553       11.46609
H        103.92450        6.71420       10.01970
N        102.55603        6.79787        7.16759
C        103.16498        7.76020        6.27450
C        104.00443        8.75129        7.09985
O        103.50106        9.29857        8.07219
C        102.06454        8.55302        5.51203
C        102.69442        9.26117        4.28654
C        100.88738        7.69367        5.02060
C        101.88500       10.47651        3.85388
H        101.64233        7.03616        7.57587
H        103.75549        7.21701        5.50469
H        101.65548        9.28410        6.24714
H        102.82936        8.54788        3.43568
H        103.70109        9.61954        4.54841
H        101.24021        6.97201        4.25648
H        100.39466        7.13181        5.83680
H        100.10215        8.34939        4.59399
H        100.90185       10.18877        3.43189
H        101.73116       11.12535        4.74121
H        102.44552       11.05704        3.09143
N        105.28209        9.04361        6.74080
C        106.17193        9.97336        7.41280
C        106.64306       11.12876        6.50383
O        107.28950       12.02732        7.02523
C        107.40823        9.18963        7.93577
C        107.04496        8.12846        8.96217
O        107.12725        8.41865       10.14046
O        106.69388        6.85603        8.66926
H        105.65829        8.56865        5.94647
H        105.64495       10.43735        8.27109
H        108.06356        9.92798        8.45157
H        108.03096        8.75730        7.11972
N        106.37208       11.19305        5.16293
C        106.92696       12.20760        4.26807
C        107.39966       11.53884        2.96557
O        106.71159       11.67199        1.96496
C        105.89581       13.34143        4.00211
C        106.39821       14.46669        3.08496
C        107.76712       14.79690        2.94677
C        105.46692       15.15502        2.28223
C        108.18796       15.70865        1.97233
C        105.89450       16.06974        1.31000
C        107.25660       16.32180        1.13397
H        105.78576       10.47736        4.73210
H        107.77082       12.71761        4.75816
H        105.53013       13.76282        4.96171
H        105.03321       12.85743        3.49398
H        108.52855       14.34248        3.56040
H        104.40781       14.95681        2.38294
H        109.24369       15.91954        1.85268
H        105.17033       16.56369        0.67349
H        107.59170       16.99369        0.35162
N        108.58718       10.85953        2.86429
C        109.14722       10.39532        1.58845
C        108.35358        9.37386        0.75381
O        108.73821        9.11637       -0.37761
C        110.51267        9.83007        1.98103
C        110.88721       10.66486        3.18761
C        109.56912       10.79960        3.93192
H        109.26672       11.30661        0.97054
H        110.40466        8.78242        2.34521
H        111.24939        9.88092        1.15438
H        111.71270       10.25578        3.80832
H        111.17218       11.67605        2.81688
H        109.36047        9.92260        4.57797
H        109.65403       11.73326        4.53040
N        107.25558        8.75073        1.24663
C        106.38975        7.83694        0.49406
C        105.62991        8.63993       -0.54816
O        105.53159        8.22732       -1.69541
C        105.39430        7.06155        1.39658
C        106.03976        6.34396        2.59952
C        106.09749        7.19377        3.80515
O        106.37694        6.61686        4.96911
O        105.72526        8.34859        3.77892
H        107.03789        8.97863        2.20119
H        107.00893        7.05104        0.00506
H        104.93985        6.26713        0.76761
H        104.55509        7.69885        1.75605
H        107.04901        5.93637        2.37922
H        105.36840        5.51701        2.90850
N        105.18197        9.88231       -0.20807
C        104.65691       10.85729       -1.13538
H        103.71749       11.28479       -0.72987
H        105.39891       11.68364       -1.22180
H        104.48124       10.43543       -2.14448
H        105.30507       10.19961        0.75945
Ca       106.84614        5.61927        6.83838
O        105.78562        3.21896        5.57287
H        105.99931        2.82408        4.69262
H        105.52887        2.44867        6.12757
O        108.47697        4.59627        4.87736
H        109.32125        5.07868        4.72861
H        108.61903        3.76403        4.38532
O        106.00475        4.13955        9.25906
H        105.91549        4.83959        9.95339
H        106.20479        3.31445        9.76534
O        109.40868        6.30289        7.05033
H        110.13937        5.93109        6.50267
H        109.86916        6.86579        7.71511

Ca 1.0



