%chk=apoCaM-CA-Ng.loop4.water4.frame291.chk
%nprocshared=20
%mem=10GB
%nosave
#b3lyp/svp scf=(tight,noincore,xqc) Test 
#IOP(5/87=12) Density=Current Pop=(MK,readradii) iop(6/33=2) iop(6/42=6)

apoCaM-CA-Ng.loop4.water4.frame291 

   -3  1 
C         49.62369       39.22915       14.25923
C         49.53780       38.59144       12.90779
O         50.13521       39.11335       11.98609
H         50.27290       40.13251       14.22135
H         48.61179       39.53266       14.59471
H         50.06352       38.51202       14.98224
N         48.83911       37.43400       12.72152
C         48.73610       36.73159       11.44329
C         50.11320       36.42313       10.89003
O         50.48010       36.98846        9.87897
C         47.73314       37.41446       10.46457
C         48.01023       38.82489       10.00240
O         48.96978       39.07655        9.09130
O         47.24836       39.72314       10.32220
H         48.38984       37.00098       13.54207
H         48.25648       35.74456       11.62848
H         46.75029       37.41716       10.98542
H         47.61391       36.77609        9.56062
N         50.92957       35.54160       11.54901
C         52.29656       35.15340       11.17521
C         52.32366       34.28292        9.91139
O         52.66692       33.11479       10.03761
C         53.25896       36.37903       11.19730
C         54.71601       36.04694       10.77937
C         53.23914       37.01891       12.60331
C         55.44277       35.01501       11.64595
H         50.55864       35.11680       12.41305
H         52.65669       34.47703       11.98448
H         52.90068       37.13856       10.47116
H         55.30672       36.98878       10.79889
H         54.71966       35.67628        9.73628
H         53.56308       36.29162       13.37835
H         53.90864       37.89995       12.64824
H         52.21809       37.35649       12.87337
H         54.92367       34.03597       11.61814
H         56.46925       34.86903       11.24726
H         55.53514       35.35996       12.69548
N         51.94555       34.73361        8.68190
C         51.84111       33.86419        7.51759
C         53.19872       33.35127        7.04708
O         53.33072       32.13651        6.99307
C         51.02569       34.53224        6.38866
C         49.57946       34.76454        6.77348
O         48.81193       35.25113        5.95914
O         49.11082       34.42003        7.99097
H         51.67117       35.70737        8.55507
H         51.23427       32.97015        7.79792
H         51.01888       33.85768        5.50438
H         51.47575       35.50063        6.10250
N         54.27175       34.12192        6.68809
C         54.39881       35.56786        6.77081
C         54.04024       36.25832        5.47274
O         53.47468       35.61180        4.60201
H         55.13133       33.61953        6.41527
H         55.47204       35.77790        6.96209
H         53.84920       35.97164        7.63413
N         54.35524       37.56612        5.21361
C         55.15688       38.44607        6.07973
C         54.51245       38.66068        7.44142
O         53.34609       38.32098        7.58205
C         55.44646       39.78447        5.34177
C         54.23059       40.62733        5.02765
O         54.17298       41.90025        5.46054
O         53.32708       40.19681        4.32876
H         54.06685       37.91999        4.28958
H         56.12838       37.93538        6.24372
H         55.95486       39.54933        4.38293
H         56.14772       40.40297        5.92636
N         55.15242       39.18734        8.53015
C         56.51357       39.69303        8.66224
C         57.57613       38.62747        8.63233
O         57.40957       37.60398        9.27934
H         54.59888       39.23610        9.39076
H         56.60134       40.11664        9.68432
H         56.71815       40.54112        7.98422
N         58.75286       38.84706        7.97809
C         59.84913       37.88059        7.98890
C         60.45609       37.62690        9.37085
O         61.23552       36.68814        9.46605
C         60.97518       38.28361        7.00766
C         61.70237       39.59188        7.37528
C         62.82056       39.85203        6.39791
N         62.81154       40.94844        5.60493
O         63.74949       39.06096        6.32290
H         58.85498       39.72205        7.44352
H         59.42810       36.91793        7.62252
H         60.54491       38.38481        5.98777
H         61.72106       37.45802        6.97920
H         62.13729       39.52788        8.39610
H         60.98596       40.43896        7.36488
H         62.03719       41.62654        5.64547
H         63.58027       41.11526        4.93857
N         60.19518       38.40836       10.46635
C         60.79164       38.13924       11.77967
C         61.73702       39.23932       12.25439
O         62.38447       39.00854       13.26754
C         59.70046       37.85084       12.85367
C         58.88797       36.59924       12.49645
C         58.75727       39.04426       13.08457
H         59.56809       39.21824       10.36978
H         61.43142       37.23114       11.72222
H         60.21299       37.63640       13.81884
H         58.15612       36.37333       13.30167
H         58.33385       36.74216       11.54772
H         59.56214       35.72285       12.38991
H         58.17097       39.28076       12.17255
H         58.04101       38.80648       13.90005
H         59.33034       39.94506       13.38949
N         61.87462       40.44647       11.62261
C         62.79011       41.47735       12.11072
C         62.01989       42.63997       12.70189
O         62.20416       42.91118       13.88077
C         63.73980       41.98555       11.00528
C         64.64746       40.91626       10.45459
N         64.69786       40.67505        9.12414
O         65.37219       40.28735       11.21116
H         61.29548       40.66520       10.80012
H         63.43271       41.07561       12.92692
H         64.39035       42.77400       11.44363
H         63.15495       42.44708       10.18120
H         64.11889       41.21859        8.46831
H         65.33537       39.95992        8.74387
N         61.17203       43.39667       11.94594
C         60.50128       44.58755       12.46544
C         58.99088       44.48441       12.34730
O         58.49708       43.58255       11.69140
C         60.95469       45.81533       11.64904
C         62.43456       46.08734       11.71833
C         62.95936       46.88898       12.74456
C         63.29466       45.59194       10.72461
C         64.32277       47.19977       12.76876
C         64.65888       45.89387       10.75667
C         65.17678       46.70501       11.77169
O         66.49027       47.00951       11.77295
H         61.03066       43.14965       10.95434
H         60.74574       44.74138       13.53901
H         60.42130       46.73656       11.96759
H         60.66644       45.65708       10.58556
H         62.30965       47.29081       13.51230
H         62.90822       44.97619        9.92223
H         64.71191       47.83309       13.55607
H         65.31123       45.50763        9.98359
H         66.88372       47.58904       12.44087
N         58.21971       45.46095       12.91801
C         56.77539       45.66245       12.78517
C         55.90775       44.65011       13.52321
O         55.19748       45.07657       14.42450
C         56.34669       45.87209       11.32178
C         57.12309       47.04464       10.69395
C         56.58008       47.40769        9.34509
O         57.29358       47.35016        8.35688
O         55.30917       47.83831        9.22614
H         58.71575       46.19276       13.44988
H         56.55596       46.63350       13.28948
H         55.26221       46.12191       11.32529
H         56.48869       44.95102       10.71715
H         58.19822       46.77451       10.61067
H         57.03929       47.94495       11.34097
N         55.87549       43.32077       13.21889
C         55.03350       42.37035       13.94555
C         55.34744       42.44181       15.42682
O         54.44495       42.72036       16.20429
C         55.23718       40.92545       13.43667
C         54.85723       40.71559       11.96182
C         53.38577       40.80025       11.64730
O         53.01256       40.57575       10.37642
O         52.54316       40.98635       12.50963
H         56.46469       42.96826       12.46257
H         53.96679       42.64726       13.80086
H         54.64456       40.21397       14.05388
H         56.30924       40.65967       13.55306
H         55.17681       39.68799       11.68603
H         55.41177       41.41795       11.30939
N         56.61934       42.25623       15.87922
C         56.99530       42.40323       17.27091
H         57.74887       43.21451       17.35785
H         56.13259       42.66761       17.91854
H         57.43807       41.45619       17.64006
H         57.36832       42.03529       15.20581
Ca        51.02822       39.83175        9.62131
O         49.76008       42.31692       10.71783
H         49.71359       41.84192       11.58534
H         50.72928       42.39777       10.53116
O         49.64972       41.52981        7.37568
H         49.83522       42.22751        6.69826
H         48.73485       41.21573        7.16641
O         52.88870       41.58510        7.91675
H         52.27529       41.90747        7.21220
H         53.36750       42.39446        8.22604
O         50.52600       38.12560        6.85845
H         50.89835       38.27382        5.95361
H         49.62305       37.75287        6.69980

Ca 1.0



