%chk=apoCaM-CA-Ng.loop3.water3.frame876.chk
%nprocshared=20
%mem=10GB
%nosave
#b3lyp/svp scf=(tight,noincore,xqc) Test 
#IOP(5/87=12) Density=Current Pop=(MK,readradii) iop(6/33=2) iop(6/42=6)

apoCaM-CA-Ng.loop3.water3.frame876 

   0  1 
C         45.20461       18.01086       -3.02656
C         46.46555       18.68053       -3.48089
O         46.48682       19.25804       -4.55754
H         44.39820       18.13330       -3.77994
H         45.38753       16.93119       -2.85278
H         44.87058       18.48145       -2.07596
N         47.55466       18.68359       -2.66699
C         48.76201       19.45047       -2.96260
C         49.50279       18.88527       -4.17768
O         49.27182       17.73369       -4.52082
C         49.61188       19.51457       -1.66375
C         50.61870       20.61866       -1.56262
O         51.28689       20.79002       -0.40687
O         50.80024       21.40089       -2.47353
H         47.47093       18.20139       -1.75740
H         48.42326       20.47196       -3.19967
H         50.08908       18.52907       -1.47101
H         48.91874       19.72655       -0.82095
N         50.38812       19.64733       -4.89243
C         51.13310       19.16230       -6.05491
C         52.62146       19.02716       -5.72827
O         53.32401       18.38949       -6.49959
C         50.84184       20.09114       -7.26029
C         51.42444       19.64212       -8.61280
C         51.01873       20.63592       -9.71766
C         51.51626       20.19942      -11.10321
N         51.09885       21.15485      -12.13186
H         50.53785       20.62394       -4.61910
H         50.78351       18.13801       -6.30805
H         51.21597       21.10908       -7.03462
H         49.73674       20.15045       -7.37520
H         51.02922       18.63316       -8.86012
H         52.53276       19.59615       -8.56482
H         51.43631       21.63985       -9.48066
H         49.90993       20.71289       -9.75086
H         51.09685       19.19811      -11.34675
H         52.62627       20.12536      -11.09961
H         50.05535       21.22683      -12.15659
H         51.51033       22.09702      -11.93905
H         51.43374       20.82530      -13.06609
N         53.16234       19.54223       -4.58056
C         54.51995       19.26213       -4.12316
C         54.51960       18.56199       -2.75974
O         55.33779       17.67064       -2.57806
C         55.48057       20.47634       -4.24008
C         55.09558       21.85112       -3.68832
O         53.98066       22.39019       -4.32966
O         54.85023       21.85632       -2.32138
H         52.58537       20.13900       -3.97936
H         54.99851       18.52256       -4.80355
H         55.65151       20.65591       -5.32275
H         56.46139       20.19009       -3.80240
N         53.61616       18.86154       -1.77843
C         53.54763       18.17338       -0.49002
C         53.87094       19.08793        0.68000
O         53.93513       18.59833        1.79846
H         52.93706       19.60654       -1.94379
H         54.27884       17.33703       -0.45495
H         52.53521       17.73370       -0.35856
N         54.15697       20.40664        0.48706
C         54.71590       21.29335        1.49193
C         53.93852       22.59751        1.59971
O         53.62835       23.20665        0.58570
C         56.15417       21.62281        1.04564
C         56.87251       22.51154        2.02767
N         57.11289       22.09256        3.29131
O         57.24395       23.62096        1.67546
H         54.08183       20.79349       -0.45222
H         54.77326       20.79128        2.48226
H         56.11987       22.12243        0.05147
H         56.73373       20.68117        0.93181
H         56.81679       21.15620        3.60275
H         57.60358       22.70437        3.95929
N         53.74144       23.15736        2.82411
C         53.22903       24.50174        3.03113
C         51.79178       24.65812        2.61367
O         50.96020       23.87502        3.05028
H         54.06279       22.64537        3.65962
H         53.88155       25.23878        2.51123
H         53.28149       24.72576        4.11787
N         51.41002       25.71353        1.83548
C         50.01387       25.96881        1.49653
C         49.47018       24.92593        0.52962
O         50.19715       24.02303        0.13733
C         49.82561       27.39758        0.92153
C         50.28171       28.50036        1.85452
C         49.81063       28.57635        3.17994
C         51.16005       29.49316        1.38827
C         50.22114       29.61605        4.02005
C         51.55507       30.54124        2.22554
C         51.08831       30.60444        3.54591
O         51.45924       31.61080        4.36317
H         52.12496       26.39863        1.54753
H         49.41096       25.91083        2.42783
H         48.74664       27.58167        0.74851
H         50.33940       27.47813       -0.06154
H         49.12755       27.83521        3.57215
H         51.52442       29.46977        0.36908
H         49.85707       29.65803        5.03933
H         52.21967       31.30630        1.84476
H         52.04477       32.32336        4.06951
N         48.16976       25.00133        0.12066
C         47.47745       24.06103       -0.75408
C         48.11558       24.00130       -2.13987
O         49.24153       23.55366       -2.26839
C         47.34769       22.66060       -0.08793
C         46.53231       21.65957       -0.94874
C         46.73834       22.78236        1.32209
C         45.08050       22.05302       -1.23479
H         47.59163       25.77546        0.47881
H         46.44599       24.45583       -0.86660
H         48.36398       22.22605        0.03316
H         46.53114       20.67084       -0.43986
H         47.03371       21.53589       -1.92279
H         47.38322       23.40644        1.97600
H         45.73424       23.25351        1.28669
H         46.65483       21.78164        1.79520
H         44.49864       22.15654       -0.29730
H         45.02704       22.99656       -1.81418
H         44.60535       21.25754       -1.84662
N         47.43072       24.45368       -3.23035
C         47.97953       24.39034       -4.59073
C         47.26102       25.24905       -5.63753
O         47.76369       25.28548       -6.75616
C         48.00178       22.93014       -5.07617
O         46.69352       22.42621       -5.10717
H         46.51218       24.85703       -3.04619
H         49.01474       24.78868       -4.55893
H         48.62073       22.31513       -4.39862
H         48.45608       22.87833       -6.09275
H         46.72641       21.59289       -5.64297
N         46.12192       25.96570       -5.40114
C         45.48259       26.78534       -6.42735
C         46.38944       27.94456       -6.83955
O         47.37741       28.17737       -6.15612
C         44.14506       27.30045       -5.88153
H         45.66029       25.93169       -4.48786
H         45.29384       26.13207       -7.30764
H         43.60051       27.90555       -6.61570
H         43.50173       26.43559       -5.60930
H         44.31046       27.92004       -4.97432
N         46.19756       28.69992       -7.96380
C         45.12896       28.54758       -8.94743
C         44.52661       29.92311       -9.23763
O         45.29607       30.79083       -9.62970
C         45.72522       27.96332      -10.22798
H         46.91893       29.41056       -8.17064
H         44.38882       27.81201       -8.61358
H         46.17369       26.97035      -10.00578
H         44.93104       27.82766      -10.99208
H         46.52011       28.62300      -10.63696
N         43.21614       30.27414       -9.06010
C         42.11985       29.41712       -8.62289
C         41.76385       29.68857       -7.16877
O         40.88144       29.01159       -6.65670
C         40.88112       29.66715       -9.51293
C         41.10942       29.27560      -10.97799
C         39.90076       29.61275      -11.80692
O         39.99799       30.38542      -12.74710
O         38.70339       29.06773      -11.51658
H         42.97891       31.26738       -9.21918
H         42.38245       28.34683       -8.69218
H         40.61078       30.74606       -9.45451
H         40.02014       29.07592       -9.12895
H         41.30174       28.18307      -11.04380
H         41.99188       29.81607      -11.38334
N         42.41669       30.62356       -6.41962
C         42.11149       30.82647       -5.02108
H         41.04581       31.11342       -4.90014
H         42.31268       29.89155       -4.45508
H         42.75095       31.63469       -4.60728
H         43.16052       31.20569       -6.82970
Ca        52.95685       23.11121       -2.44004
O         53.39525       25.72080       -1.01355
H         54.26027       25.62596       -1.48597
H         53.52539       26.49433       -0.41095
O         51.27985       25.85020       -3.42919
H         52.05202       26.45969       -3.32166
H         50.54068       26.44000       -3.72187
O         51.20385       23.30423       -5.18872
H         51.84648       22.62163       -5.49842
H         50.81131       23.66067       -6.02388

Ca 1.0



