%chk=apoCaM-CA-Ng.loop3.water2.frame241.chk
%nprocshared=20
%mem=10GB
%nosave
#b3lyp/svp scf=(tight,noincore,xqc) Test 
#IOP(5/87=12) Density=Current Pop=(MK,readradii) iop(6/33=2) iop(6/42=6)

apoCaM-CA-Ng.loop3.water2.frame241 

   0  1 
C          6.01977       42.65164       87.08697
C          5.85726       44.14114       87.12102
O          5.70784       44.74737       86.07002
H          7.00432       42.37759       87.52132
H          5.21138       42.17267       87.67726
H          5.97573       42.27475       86.04251
N          5.89875       44.80338       88.31318
C          5.78562       46.25390       88.44979
C          6.91659       46.97250       87.72201
O          6.74352       48.12672       87.35180
C          4.39571       46.75434       87.98873
C          3.28414       46.07782       88.74017
O          3.20295       46.19474       90.07942
O          2.44377       45.42778       88.13913
H          6.03547       44.25366       89.17558
H          5.88262       46.51336       89.52808
H          4.26647       46.58408       86.89896
H          4.31400       47.84802       88.16960
N          8.12087       46.36092       87.51643
C          9.23127       46.98737       86.80463
C          9.65379       46.19853       85.56454
O         10.53036       46.66910       84.85345
C         10.42476       47.18890       87.76532
C         11.01637       45.87877       88.32258
C         12.23582       46.16955       89.20554
C         12.86998       44.87402       89.72951
N         14.06216       45.16430       90.52601
H          8.26085       45.41077       87.88896
H          8.93005       47.99563       86.44574
H         10.09472       47.82732       88.61437
H         11.22309       47.73740       87.21893
H         11.33406       45.22891       87.47872
H         10.25766       45.33611       88.92568
H         11.93073       46.80548       90.06580
H         12.99204       46.71959       88.60427
H         13.15755       44.22864       88.86972
H         12.13342       44.31994       90.35336
H         14.48210       44.26570       90.85660
H         14.76807       45.67035       89.94269
H         13.80864       45.74752       91.35627
N          9.11049       44.98410       85.25467
C          9.55174       44.18279       84.12023
C          9.14530       44.84403       82.80826
O          7.96160       45.07200       82.60035
C          8.93573       42.76596       84.22203
C          9.50354       41.77662       83.23924
O          9.00826       40.52682       83.19897
O         10.40802       42.08420       82.48138
H          8.39903       44.57662       85.87247
H         10.65653       44.06087       84.19255
H          7.83498       42.83718       84.08704
H          9.13198       42.35234       85.23485
N         10.07655       45.15155       81.86246
C          9.74877       45.73771       80.56771
C          8.82016       44.85672       79.75054
O          7.94943       45.37681       79.06876
H         11.06877       44.94217       82.05363
H         10.69258       45.86649       79.99381
H          9.29940       46.74543       80.70123
N          8.95930       43.50471       79.78286
C          8.12473       42.55309       79.05703
C          7.38527       41.67496       80.06063
O          7.69804       40.50248       80.19743
C          8.98994       41.77746       78.02666
C         10.20553       41.03139       78.53818
N         11.01088       40.39265       77.66075
O         10.48586       41.00856       79.72457
H          9.69943       43.12594       80.38254
H          7.34844       43.06956       78.44977
H          9.36339       42.52170       77.28978
H          8.33804       41.05978       77.48319
H         10.80169       40.39806       76.65191
H         11.85334       39.90081       77.99155
N          6.36388       42.20575       80.79793
C          5.68276       41.51687       81.88929
C          5.14360       40.15228       81.51822
O          4.31532       40.04386       80.62546
H          6.07391       43.17631       80.60325
H          4.84985       42.15060       82.26302
H          6.40666       41.40535       82.72070
N          5.62069       39.05467       82.17473
C          5.27969       37.67588       81.85002
C          6.48305       37.03095       81.20587
O          7.50903       37.67410       81.05457
C          4.91175       36.89308       83.12975
C          3.60983       37.31572       83.75090
C          2.39767       37.07227       83.08288
C          3.58821       37.90747       85.02288
C          1.18174       37.41159       83.68327
C          2.37215       38.25380       85.61769
C          1.16374       38.00252       84.95117
O         -0.01671       38.31787       85.52067
H          6.34487       39.19290       82.89684
H          4.45393       37.62520       81.10603
H          5.75003       37.00339       83.85316
H          4.81327       35.80693       82.91710
H          2.39291       36.59980       82.10790
H          4.51126       38.09675       85.55637
H          0.25255       37.20639       83.16624
H          2.37088       38.70884       86.59977
H         -0.07195       38.71991       86.39933
N          6.40514       35.75928       80.74082
C          7.46832       35.14765       79.96712
C          7.07576       35.38182       78.52768
O          7.84056       36.02741       77.82246
C          7.71048       33.67384       80.40059
C          8.34334       33.56014       81.82211
C          8.67086       32.97601       79.41883
C          7.52941       34.14360       82.97740
H          5.50305       35.26357       80.80767
H          8.43674       35.67722       80.11168
H          6.74535       33.12158       80.37769
H          9.34366       34.04874       81.83072
H          8.49010       32.48149       82.04901
H          8.83480       31.92008       79.72544
H          8.25146       32.96242       78.39208
H          9.65518       33.49315       79.39605
H          6.51409       33.69734       83.00803
H          8.04621       33.92510       83.93599
H          7.46532       35.24432       82.91058
N          5.85394       34.99700       78.05090
C          5.35287       35.47709       76.76913
C          5.60446       34.49543       75.65539
O          5.47205       34.90339       74.51035
C          3.88144       35.90230       76.86920
O          3.70339       36.83903       77.89910
H          5.21700       34.45767       78.65662
H          5.92291       36.39206       76.48670
H          3.25163       35.01508       77.08915
H          3.52724       36.33208       75.90438
H          4.16120       37.67274       77.61375
N          6.08686       33.23410       75.89625
C          6.63540       32.37407       74.85243
C          7.91312       32.99307       74.27123
O          8.42913       32.48022       73.28843
C          5.57492       32.05377       73.78203
H          6.16080       32.88942       76.86392
H          6.92828       31.40080       75.30358
H          5.24944       32.94523       73.21168
H          5.97971       31.32457       73.04984
H          4.68295       31.59946       74.26494
N          8.47995       34.09856       74.84938
C          9.62082       34.83706       74.33871
C         10.69474       34.98493       75.41752
O         10.53610       34.43962       76.49555
C          9.09350       36.22074       73.92846
H          8.07170       34.49841       75.70142
H         10.05461       34.34658       73.44048
H          8.29299       36.10220       73.16700
H          8.66245       36.74745       74.80875
H          9.88495       36.85639       73.48564
N         11.79347       35.75818       75.17473
C         12.88446       36.12839       76.08374
C         13.82547       34.98328       76.43516
O         14.96893       35.03286       76.00007
C         12.45993       37.02693       77.28426
C         11.85799       36.37149       78.54267
C         11.57623       37.39488       79.61038
O         10.33756       37.50267       80.12137
O         12.47068       38.10549       80.04239
H         11.85980       36.17613       74.23448
H         13.50605       36.82849       75.47467
H         11.76851       37.80584       76.89834
H         13.38565       37.54026       77.62999
H         12.58381       35.65371       78.97304
H         10.91116       35.85284       78.31401
N         13.45612       33.93391       77.22030
C         14.38570       32.88203       77.56969
H         15.25464       33.31181       78.11358
H         13.88870       32.13991       78.22947
H         14.74012       32.36759       76.65183
H         12.50784       33.87057       77.60475
Ca         9.75184       39.09196       81.62166
O         12.41415       39.94062       83.23180
H         12.04646       40.14686       84.12789
H         12.84004       40.78513       82.93849
O          9.91366       37.30103       84.05718
H         10.46138       37.93633       84.58358
H          8.97763       37.54963       84.26388

Ca 1.0



