%chk=apoCaM-CA-Ng.loop1.water4.frame736.chk
%nprocshared=20
%mem=10GB
%nosave
#b3lyp/svp scf=(tight,noincore,xqc) Test 
#IOP(5/87=12) Density=Current Pop=(MK,readradii) iop(6/33=2) iop(6/42=6)

apoCaM-CA-Ng.loop1.water4.frame736 

   0  1 
C         83.41816       35.08522       20.60163
C         84.72386       35.79416       20.38031
O         84.74964       36.82324       19.72121
H         82.58487       35.61247       20.09134
H         83.48285       34.04965       20.20484
H         83.19915       35.03904       21.68975
N         85.86287       35.27941       20.91552
C         87.18154       35.89557       20.78031
C         87.59034       36.09130       19.30753
O         87.63447       35.14530       18.53637
C         88.23922       35.08012       21.56754
C         88.38905       33.65608       21.09538
O         89.24917       32.93901       21.57893
O         87.59178       33.18774       20.11713
H         85.77409       34.41129       21.46748
H         87.14063       36.89452       21.26859
H         87.96928       35.06790       22.64714
H         89.21867       35.59637       21.46698
N         87.88987       37.33785       18.85576
C         88.23795       37.65945       17.47028
C         89.55228       37.02745       17.01399
O         90.55956       37.19457       17.68752
C         88.34636       39.18897       17.34208
C         88.62964       39.64883       15.90715
C         88.69415       41.17455       15.85292
C         88.96843       41.66382       14.42926
N         89.02378       43.12370       14.39050
H         87.82717       38.11398       19.53297
H         87.40668       37.33339       16.80556
H         89.14951       39.56076       18.01703
H         87.37952       39.63288       17.66959
H         87.82183       39.28201       15.23621
H         89.60092       39.23544       15.55759
H         89.50495       41.53094       16.52635
H         87.72602       41.59434       16.20428
H         88.15948       41.30727       13.75339
H         89.93683       41.24774       14.07126
H         88.11545       43.52537       14.71913
H         89.80168       43.46853       14.99902
H         89.19678       43.43377       13.40765
N         89.61883       36.37584       15.81074
C         90.85461       35.84467       15.22342
C         91.08179       36.51364       13.86951
O         90.13472       36.53607       13.09381
C         90.77663       34.31031       14.97600
C         89.82808       33.57433       15.87797
O         90.28149       32.65170       16.74324
O         88.62554       33.75957       15.77092
H         88.75139       36.28176       15.26049
H         91.70557       36.01768       15.91695
H         91.80870       33.90126       15.07113
H         90.44197       34.07687       13.94136
N         92.26894       37.02143       13.43317
C         93.52257       36.99637       14.17518
C         94.70048       37.42994       13.31000
O         94.52028       37.71429       12.13296
H         92.26170       37.40370       12.47492
H         93.73377       35.95635       14.50390
H         93.43594       37.65507       15.06456
N         95.95963       37.50333       13.83037
C         97.10611       37.85079       12.99497
C         97.43260       36.68503       12.07408
O         97.88481       35.65427       12.55447
C         98.32841       38.22296       13.85935
C         99.51466       38.62476       13.02406
O         99.43989       39.57577       12.26206
O        100.66991       37.93928       13.12090
H         96.09410       37.32846       14.83791
H         96.84069       38.75788       12.40484
H         98.60763       37.36287       14.50620
H         98.05901       39.07720       14.51742
N         97.18396       36.76823       10.73846
C         97.47034       35.69505        9.80172
C         96.24238       34.88265        9.45625
O         96.33237       34.07802        8.54014
H         96.71883       37.61034       10.36717
H         98.23553       34.99123       10.19707
H         97.89707       36.15297        8.88342
N         95.09160       34.96730       10.19008
C         93.92042       34.13405        9.94035
C         93.79717       33.10871       11.04721
O         94.43009       33.25340       12.08227
C         92.64644       35.00320        9.84487
C         92.75333       36.03885        8.72469
O         91.52553       34.18986        9.61047
H         95.05852       35.58566       11.00896
H         94.05748       33.56601        8.99397
H         92.53013       35.53583       10.81906
H         90.73786       34.66580        9.98373
H         92.87723       35.53243        7.74414
H         91.82943       36.65435        8.69808
H         93.61539       36.71696        8.89759
N         93.04146       31.99116       10.85813
C         93.00239       30.89730       11.82748
C         94.38588       30.23169       11.92457
O         94.60684       29.48556       12.86977
C         91.85015       29.90303       11.45829
C         90.48801       30.66142       11.48602
C         91.79283       28.68409       12.40295
C         89.32124       29.86766       10.89757
H         92.52503       31.89604        9.97153
H         92.76265       31.33417       12.82349
H         92.03960       29.53112       10.42652
H         90.54501       31.58644       10.87815
H         90.24726       30.96813       12.52800
H         90.98039       27.98853       12.11615
H         92.72084       28.08331       12.34182
H         91.63245       29.00956       13.45312
H         89.54171       29.59931        9.84215
H         89.10489       28.94991       11.47684
H         88.40758       30.49927       10.91396
N         95.37880       30.48358       11.01437
C         96.73561       29.95625       11.11653
C         97.04992       29.05825        9.93229
O         96.25653       28.94844        9.00427
C         97.73313       31.14890       11.22042
C         97.55081       31.90008       12.54046
O         99.06594       30.71342       11.15775
H         95.18885       31.08710       10.20074
H         96.84157       29.31603       12.02067
H         97.52910       31.83235       10.36058
H         99.60581       31.47330       10.81422
H         97.77518       31.22519       13.39427
H         98.24195       32.76765       12.58007
H         96.52058       32.27022       12.65345
N         98.19927       28.33386        9.94795
C         98.61146       27.39236        8.92376
C         98.64314       26.01090        9.55018
O         97.96193       25.12011        9.06634
C         99.98425       27.83100        8.33475
C        100.50361       26.85748        7.27067
O        100.94766       27.96304        9.34961
H         98.81196       28.42041       10.77173
H         97.88252       27.37367        8.08142
H         99.82252       28.82567        7.85619
H        101.64035       28.59351        9.02024
H        100.69060       25.85471        7.71125
H         99.77253       26.76348        6.44110
H        101.46259       27.23499        6.85456
N         99.43139       25.77300       10.63625
C         99.57682       24.47158       11.27329
C         99.44104       24.59884       12.78335
O         99.49658       25.70329       13.30528
C        100.92689       23.85902       10.83168
C        102.13737       24.77454       11.11622
C        103.39838       24.31204       10.37922
C        104.59861       25.25707       10.59688
N        104.33673       26.63039       10.14737
H         99.99175       26.54710       11.01031
H         98.76945       23.79224       10.92229
H        100.85497       23.72420        9.72920
H        101.08113       22.85666       11.28640
H        102.31340       24.84922       12.21077
H        101.92504       25.77689       10.71643
H        103.18234       24.26898        9.28781
H        103.67437       23.29187       10.72026
H        105.45655       24.85080       10.01729
H        104.88221       25.26828       11.67152
H        105.22413       27.18055       10.19789
H        103.99216       26.63747        9.15968
H        103.64479       27.10329       10.77154
N         99.20487       23.49241       13.54689
C         99.03452       23.55261       14.99804
C         97.94913       24.55271       15.40491
O         98.27650       25.43985       16.18117
C         98.76937       22.15871       15.61642
C         99.95630       21.19861       15.44067
C         99.68252       19.88124       16.10956
O        100.47669       19.45477       17.11017
O         98.74575       19.18761       15.74596
H         99.11569       22.58418       13.06874
H         99.98900       23.91166       15.44724
H         97.86634       21.69374       15.18246
H         98.60133       22.28946       16.70937
H        100.86283       21.65359       15.89550
H        100.15772       21.01241       14.36561
N         96.66269       24.54829       14.94499
C         96.11743       23.62034       13.97853
H         95.06282       23.89373       13.76081
H         96.68082       23.67340       13.02570
H         96.10845       22.59073       14.37456
H         96.02837       25.28848       15.28508
Ca        88.03059       31.47560       18.74828
O         90.78945       31.01794       19.35260
H         90.66002       31.96070       19.62604
H         90.97638       30.53696       20.19690
O         85.79155       33.21591       16.60436
H         84.85364       33.10068       16.89934
H         85.72914       33.35703       15.62608
O         87.35652       28.77617       18.92741
H         86.60994       29.34104       19.25181
H         87.74997       28.39218       19.75011
O         88.34290       30.23265       15.96206
H         88.36874       30.94302       15.27301
H         89.29250       29.99231       16.10734

Ca 1.0



