%chk=apoCaM-CA-Ng.loop1.water4.frame390.chk
%nprocshared=20
%mem=10GB
%nosave
#b3lyp/svp scf=(tight,noincore,xqc) Test 
#IOP(5/87=12) Density=Current Pop=(MK,readradii) iop(6/33=2) iop(6/42=6)

apoCaM-CA-Ng.loop1.water4.frame390 

   0  1 
C          0.73473       68.77971       22.19038
C          1.48356       67.67847       21.49540
O          2.47160       67.95540       20.83079
H         -0.13824       68.38469       22.75371
H          1.40826       69.28908       22.91142
H          0.36890       69.51468       21.44510
N          1.07962       66.38722       21.63214
C          1.79595       65.25866       21.05048
C          1.49055       65.06587       19.56501
O          1.97037       64.08865       19.02494
C          1.42080       63.95356       21.80162
C          1.80352       63.98154       23.26039
O          2.61261       63.17603       23.69341
O          1.24283       64.86887       24.10380
H          0.26524       66.19613       22.23592
H          2.89263       65.39354       21.19058
H          1.96704       63.10541       21.33833
H          0.33136       63.75209       21.70854
N          0.68998       65.89601       18.83499
C          0.22399       65.54749       17.48936
C          0.73681       66.49917       16.42086
O          0.68825       67.69757       16.65732
C         -1.31522       65.55159       17.48141
C         -1.88163       64.46033       18.40517
C         -3.41389       64.37464       18.37491
C         -3.96621       63.91975       17.01119
N         -5.42089       63.78629       17.05862
H          0.32400       66.76075       19.25678
H          0.53238       64.52820       17.22251
H         -1.65363       65.36210       16.44883
H         -1.70123       66.54980       17.78382
H         -1.56650       64.67716       19.44882
H         -1.46542       63.47136       18.11680
H         -3.84805       65.35788       18.65782
H         -3.72053       63.62546       19.13702
H         -3.51818       62.93691       16.74123
H         -3.70757       64.65088       16.21743
H         -5.69503       63.08101       17.78054
H         -5.85686       64.71029       17.28245
H         -5.76525       63.46617       16.12461
N          1.14876       66.09500       15.16877
C          1.20309       64.72504       14.62803
C         -0.14466       64.03773       14.72659
O         -0.28093       63.06743       15.45614
C          2.40011       63.92567       15.18927
C          3.68950       64.57427       14.77865
O          3.65914       65.72361       14.07453
O          4.75730       64.10119       15.13472
H          1.40132       66.84532       14.50589
H          1.42441       64.76753       13.53900
H          2.39462       62.89602       14.77290
H          2.37595       63.86839       16.29097
N         -1.21514       64.47671       14.00744
C         -1.10721       65.52521       13.00480
C         -2.41382       65.84498       12.30950
O         -3.44940       65.31151       12.68371
H         -2.11532       64.00657       14.16117
H         -0.38440       65.19036       12.23740
H         -0.74438       66.45925       13.47838
N         -2.47247       66.75095       11.29059
C         -1.29724       67.41778       10.72386
C         -0.44530       66.48680        9.85112
O          0.66342       66.86907        9.50582
C         -1.71606       68.68547        9.94805
C         -2.66894       68.40853        8.81508
O         -2.33298       67.70431        7.87700
O         -3.90424       68.94609        8.83349
H         -3.40690       66.98868       10.92409
H         -0.66745       67.77867       11.56632
H         -0.81655       69.20605        9.55484
H         -2.21594       69.37407       10.66516
N         -0.90513       65.27560        9.42226
C         -0.12748       64.33296        8.62096
C          0.91554       63.61076        9.44796
O          1.18821       64.03964       10.55872
H         -1.87336       65.00395        9.64451
H          0.30105       64.80592        7.71178
H         -0.83449       63.54717        8.28005
N          1.43380       62.41263        9.01717
C          2.21973       61.51539        9.87347
C          1.51978       61.39074       11.21594
O          2.00513       61.90670       12.21085
C          3.73471       61.85640        9.91052
C          4.10686       63.26589       10.36759
O          4.26700       61.65546        8.62329
H          1.11295       62.04266        8.10965
H          2.20533       60.49265        9.43087
H          4.19890       61.13150       10.62570
H          5.08335       61.09612        8.71781
H          3.74361       63.47573       11.39183
H          5.21437       63.35689       10.37305
H          3.70718       64.02119        9.66047
N          0.29154       60.79682       11.25707
C         -0.63909       60.88983       12.38066
C         -0.40225       59.72391       13.34250
O         -1.27981       58.89471       13.53425
C         -2.10910       60.98216       11.82168
C         -2.22754       62.13262       10.77460
C         -3.14250       61.19448       12.94945
C         -3.58464       62.21483       10.07187
H         -0.05897       60.38773       10.37692
H         -0.45625       61.83872       12.93036
H         -2.33938       60.02273       11.30749
H         -1.49371       61.97856        9.96137
H         -2.00036       63.10802       11.25358
H         -2.98252       62.16613       13.44457
H         -4.17594       61.17409       12.55136
H         -3.10092       60.40839       13.72386
H         -3.54793       63.00854        9.29510
H         -3.81723       61.24953        9.57351
H         -4.39781       62.47821       10.77576
N          0.79815       59.60031       13.97572
C          1.14462       58.52874       14.90352
C          1.58691       59.07479       16.26615
O          2.03129       58.28442       17.08402
C          2.24304       57.64352       14.26512
C          3.57079       58.37823       14.02780
O          1.76086       57.14105       13.04466
H          1.52590       60.29477       13.78644
H          0.27067       57.86351       15.08092
H          2.43070       56.79519       14.96496
H          2.27645       56.31738       12.84332
H          4.31140       57.67124       13.59919
H          3.44924       59.21929       13.31517
H          3.97998       58.76555       14.98343
N          1.51415       60.40907       16.56295
C          1.93853       61.06758       17.80057
C          3.44253       60.95575       18.05290
O          4.12726       60.22625       17.35060
C          1.03153       60.75735       19.03117
C          1.02701       59.32089       19.55313
O         -0.28833       61.13320       18.72809
H          1.13973       61.04618       15.85071
H          1.77784       62.14614       17.62105
H          1.40988       61.39250       19.86159
H         -0.69955       61.47452       19.56581
H          0.51977       58.63899       18.84458
H          2.05739       58.97310       19.76766
H          0.44049       59.27914       20.49597
N          4.02854       61.72574       19.02013
C          5.45748       61.75073       19.31641
C          6.07770       63.14080       19.09651
O          7.27094       63.27322       19.33246
C          5.66490       61.28741       20.77573
C          5.20161       59.83012       20.96545
C          5.29838       59.31779       22.41050
C          6.72809       59.32189       22.97183
N          6.76482       58.70636       24.29846
H          3.43615       62.32999       19.59990
H          6.01165       61.05294       18.65086
H          5.10080       61.95832       21.46162
H          6.74472       61.35219       21.02509
H          5.80025       59.16859       20.30140
H          4.13632       59.74351       20.66796
H          4.92062       58.27148       22.41316
H          4.63873       59.92503       23.06803
H          7.10029       60.36613       23.04884
H          7.39921       58.75411       22.29021
H          6.13249       59.21986       24.95456
H          6.46867       57.70487       24.23589
H          7.74205       58.74519       24.66803
N          5.36657       64.20869       18.61589
C          5.96589       65.52248       18.35487
C          6.49411       66.15470       19.62642
O          5.72563       66.40320       20.54569
C          4.93946       66.46007       17.66842
C          5.40458       67.91036       17.40936
C          6.74677       68.08041       16.72750
O          7.72882       68.33397       17.40301
O          6.85129       68.17670       15.38861
H          4.37390       64.08109       18.38389
H          6.80271       65.38657       17.63506
H          4.01279       66.51661       18.28430
H          4.66544       66.00956       16.70510
H          5.45619       68.44601       18.38112
H          4.61908       68.43387       16.81946
N          7.81320       66.48176       19.71859
C          8.36822       67.16857       20.86221
H          9.45267       67.35072       20.69934
H          7.86574       68.15165       20.98880
H          8.23807       66.55723       21.77829
H          8.44764       66.26265       18.93537
Ca         5.36344       67.11895       14.14581
O          2.90203       66.80846       11.42694
H          3.09416       66.80028       10.45666
H          2.65559       65.87297       11.63176
O          7.49572       68.48952       12.36262
H          8.21695       67.95952       11.93928
H          7.95982       69.26479       12.76692
O          6.49535       65.22473       12.06733
H          7.18420       64.62923       11.67991
H          6.31029       64.83766       12.95904
O          5.56754       67.59837        9.78577
H          6.44472       67.28317       10.11761
H          5.25427       66.87086        9.19162

Ca 1.0



