%chk=apoCaM-CA-Ng.loop4.water3.frame139.chk
%nprocshared=20
%mem=10GB
%nosave
#b3lyp/svp scf=(tight,noincore,xqc) Test 
#IOP(5/87=12) Density=Current Pop=(MK,readradii) iop(6/33=2) iop(6/42=6)

apoCaM-CA-Ng.loop4.water3.frame139 

   -3  1 
C         36.41468       40.61754       10.54792
C         36.22724       39.31379       11.25961
O         35.77724       38.38342       10.62050
H         37.11781       40.46600        9.69955
H         35.43965       40.96214       10.14459
H         36.82977       41.39493       11.21965
N         36.59139       39.15452       12.56532
C         36.52894       37.88443       13.28510
C         37.30661       36.79321       12.57627
O         36.73696       35.77951       12.22487
C         35.11045       37.50025       13.80550
C         33.84979       37.63288       12.96682
O         33.58724       36.94731       11.83304
O         32.96477       38.35775       13.39480
H         37.01382       39.95671       13.05603
H         37.09685       38.00635       14.23674
H         34.93893       38.17462       14.67640
H         35.15850       36.47460       14.23186
N         38.65314       36.95303       12.39994
C         39.61625       35.99901       11.83806
C         39.81508       34.78400       12.74722
O         40.89329       34.66604       13.31424
C         39.33637       35.62802       10.35370
C         40.48415       34.77582        9.73250
C         39.08860       36.88805        9.50389
C         41.86312       35.45742        9.68350
H         39.05519       37.84927       12.71806
H         40.58415       36.54624       11.84569
H         38.40899       35.01805       10.30563
H         40.20171       34.50922        8.69089
H         40.58981       33.82612       10.29907
H         39.95358       37.58190        9.54180
H         38.89330       36.60744        8.44704
H         38.19863       37.43574        9.87227
H         42.59501       34.77739        9.19990
H         41.83419       36.39356        9.08931
H         42.24853       35.68104       10.69877
N         38.83666       33.85627       12.96461
C         38.98743       32.76211       13.91255
C         39.94960       31.69997       13.37446
O         40.97099       31.50499       14.01792
C         37.60745       32.21910       14.37244
C         36.77849       33.24830       15.10547
O         37.22367       34.50685       15.29457
O         35.68132       32.93456       15.53853
H         37.93773       33.93679       12.48648
H         39.43271       33.17065       14.85012
H         37.77123       31.36556       15.06490
H         36.98748       31.88195       13.52845
N         39.76138       30.96881       12.23079
C         38.58670       31.05896       11.37611
C         38.59603       30.09349       10.19790
O         39.60268       29.43309        9.98384
H         40.50412       30.29654       11.98665
H         38.49257       32.09534       10.99454
H         37.73902       30.77233       11.98448
N         37.53025       29.93502        9.34574
C         36.22106       30.58808        9.41199
C         36.40187       32.09780        9.36449
O         36.09234       32.77199       10.33681
C         35.38543       30.04092       10.59526
C         33.93927       30.44033       10.50677
O         33.27244       30.12841        9.53251
O         33.35845       31.10332       11.52258
H         37.66314       29.28900        8.55475
H         35.63915       30.27187        8.52059
H         35.76981       30.35670       11.57616
H         35.41745       28.93057       10.55582
N         36.97800       32.71255        8.29002
C         37.27384       32.05660        7.02948
C         38.68441       31.56541        6.98647
O         39.44045       31.78843        7.92231
H         37.23424       33.70268        8.36419
H         37.06087       32.75216        6.18830
H         36.61438       31.18524        6.86793
N         39.10572       30.86089        5.90438
C         40.43698       30.29379        5.81443
C         41.34185       31.18710        4.98465
O         42.52014       30.87341        4.88444
C         40.40124       28.83086        5.30326
C         39.70364       27.82902        6.25578
C         38.19078       27.82858        6.26485
N         37.53091       26.99773        7.10653
O         37.55258       28.54248        5.50791
H         38.47336       30.76766        5.09413
H         40.91248       30.27517        6.82058
H         41.46118       28.49994        5.24882
H         39.97684       28.76031        4.27799
H         40.08501       27.99468        7.28674
H         39.99889       26.80286        5.94725
H         38.04847       26.38206        7.75132
H         36.50020       26.97286        7.12115
N         40.89327       32.35958        4.44004
C         41.77103       33.33183        3.80196
C         41.41374       33.58426        2.34703
O         42.13568       34.35348        1.72739
C         41.79289       34.66061        4.61685
C         42.40971       34.44040        6.00623
C         40.40437       35.31128        4.75812
H         39.90112       32.61680        4.52479
H         42.81633       32.95118        3.77912
H         42.45371       35.37935        4.08317
H         41.79901       33.73703        6.61113
H         43.43673       34.02777        5.90651
H         42.48249       35.40667        6.54958
H         40.49583       36.28765        5.27991
H         39.95242       35.49393        3.76108
H         39.71656       34.67831        5.35688
N         40.37297       32.96206        1.71064
C         40.13108       33.13880        0.28007
C         38.75337       33.69046       -0.04650
O         38.53313       33.94680       -1.22322
C         40.32340       31.78880       -0.44080
C         41.68143       31.18607       -0.17701
N         42.81417       31.83353       -0.53685
O         41.75711       30.09473        0.36756
H         39.77515       32.29681        2.22146
H         40.85647       33.86330       -0.14784
H         40.20515       31.92485       -1.53818
H         39.53831       31.08039       -0.09412
H         42.77536       32.75241       -1.00038
H         43.73656       31.41284       -0.35025
N         37.77819       33.90863        0.88993
C         36.44504       34.39761        0.51419
C         35.56258       34.74499        1.70682
O         35.86941       34.38750        2.83568
C         35.72446       33.36644       -0.40436
C         35.69822       31.97641        0.20336
C         36.49582       30.95664       -0.34853
C         34.90087       31.68222        1.32281
C         36.50958       29.67939        0.21897
C         34.91108       30.40252        1.88527
C         35.72047       29.39760        1.33775
O         35.74784       28.16186        1.87637
H         37.98683       33.72619        1.88155
H         36.58516       35.35580       -0.03469
H         36.26865       33.31800       -1.36737
H         34.69698       33.69367       -0.67115
H         37.12310       31.15206       -1.20952
H         34.26589       32.43593        1.76203
H         37.13874       28.90924       -0.20968
H         34.29121       30.19484        2.74830
H         35.22048       27.92733        2.65333
N         34.43322       35.48800        1.49253
C         33.45207       35.89544        2.50018
C         34.00248       36.84374        3.57062
O         33.20939       37.31500        4.37209
C         32.75549       34.63994        3.08649
C         31.54738       34.95194        3.99092
C         30.85012       33.69658        4.42503
O         30.34641       32.95334        3.59814
O         30.75915       33.39520        5.73479
H         34.23534       35.78398        0.52355
H         32.66703       36.47428        1.96196
H         33.48259       34.02019        3.65208
H         32.38267       34.04486        2.22303
H         30.82076       35.59273        3.44523
H         31.87560       35.47935        4.90729
N         35.31380       37.21507        3.64070
C         35.83449       38.08995        4.68588
C         36.33653       39.40262        4.10381
O         36.77471       40.24324        4.87721
C         36.95686       37.34883        5.45204
C         36.52005       35.98500        6.03121
C         35.54822       36.09317        7.17278
O         35.87044       35.52944        8.34927
O         34.47132       36.64915        7.04100
H         35.99115       36.87684        2.94704
H         35.03888       38.36904        5.40644
H         37.35823       37.98544        6.27212
H         37.78426       37.15502        4.73525
H         37.42762       35.46732        6.41177
H         36.08886       35.34862        5.23411
N         36.27990       39.66829        2.76323
C         36.70636       40.92089        2.17621
H         37.52217       40.72577        1.44965
H         35.84915       41.37785        1.63791
H         37.06963       41.64507        2.93408
H         35.91068       38.96974        2.10406
Ca        34.90257       35.96027       10.31295
O         32.93693       33.52773        9.50722
H         33.37874       32.86363        8.92120
H         32.01566       33.59542        9.15171
O         31.85750       36.72192        9.37693
H         31.20993       36.00294        9.17017
H         32.66577       36.47646        8.86301
O         34.08912       33.73427       12.62173
H         34.27211       34.11399       13.51654
H         33.13540       33.47114       12.65816

Ca 1.0



