%chk=apoCaM-CA-Ng.loop1.water2.frame1099.chk
%nprocshared=20
%mem=10GB
%nosave
#b3lyp/svp scf=(tight,noincore,xqc) Test 
#IOP(5/87=12) Density=Current Pop=(MK,readradii) iop(6/33=2) iop(6/42=6)

apoCaM-CA-Ng.loop1.water2.frame1099 

   0  1 
C         72.56344       73.48759       63.55741
C         72.07841       72.59468       64.65984
O         71.42890       71.59878       64.37784
H         73.67305       73.49982       63.55708
H         72.20832       73.12470       62.56891
H         72.18537       74.52019       63.71335
N         72.33584       72.91884       65.95758
C         71.89532       72.12140       67.09492
C         70.68922       72.79164       67.71810
O         70.74653       73.26272       68.84570
C         73.05462       71.91072       68.09482
C         74.22837       71.14955       67.53211
O         75.28738       70.89780       68.32478
O         74.23558       70.74800       66.37873
H         72.82897       73.80413       66.15224
H         71.55153       71.11923       66.78000
H         72.67176       71.33150       68.96381
H         73.41323       72.89697       68.45969
N         69.52553       72.81680       67.00978
C         68.29105       73.43331       67.47337
C         67.25208       72.39580       67.91574
O         66.80722       72.52918       69.04759
C         67.73157       74.40991       66.41711
C         68.72599       75.53619       66.09492
C         68.13251       76.51541       65.07506
C         69.10442       77.66589       64.78284
N         68.53251       78.59856       63.81211
H         69.52711       72.37087       66.08499
H         68.50040       74.05409       68.37475
H         66.79993       74.86499       66.82009
H         67.47206       73.88607       65.47786
H         69.66395       75.10492       65.68025
H         68.96829       76.08455       67.03159
H         67.18550       76.93678       65.47804
H         67.90871       75.97260       64.13023
H         70.05881       77.25755       64.38176
H         69.32489       78.21160       65.72747
H         67.63981       79.00019       64.18096
H         69.20958       79.37765       63.64539
H         68.35075       78.10792       62.90646
N         66.78482       71.33989       67.17513
C         67.29143       70.89407       65.88181
C         68.48644       69.96407       66.08557
O         68.82023       69.65809       67.22362
C         66.16339       70.21860       65.06786
C         65.71705       68.92579       65.69038
O         66.61944       67.94281       65.85695
O         64.56368       68.77148       66.04875
H         66.10663       70.71921       67.64570
H         67.60410       71.76336       65.28376
H         66.52779       70.00183       64.04461
H         65.30546       70.92145       64.97624
N         69.20307       69.49968       65.02351
C         70.39807       68.68865       65.19957
C         70.12557       67.26517       65.61559
O         69.01911       66.77712       65.45837
H         68.95116       69.80691       64.07228
H         71.05779       69.17276       65.94202
H         70.96308       68.63466       64.24498
N         71.14721       66.52031       66.11850
C         71.06472       65.08781       66.38584
C         72.19146       64.38397       65.62370
O         73.17285       65.03874       65.29782
C         71.18851       64.83252       67.90412
C         70.02258       65.41146       68.65841
O         68.89043       65.00952       68.44027
O         70.22254       66.35711       69.59574
H         72.04628       66.99409       66.29982
H         70.08857       64.69202       66.03941
H         72.13654       65.27583       68.27945
H         71.21629       63.74803       68.12659
N         72.17902       63.05556       65.30971
C         71.08060       62.14707       65.57508
C         69.86768       62.40946       64.70901
O         69.89935       63.24785       63.82032
H         73.01640       62.65787       64.85567
H         70.81175       62.18569       66.64669
H         71.40619       61.10733       65.35418
N         68.74251       61.68519       64.94697
C         67.49172       61.78486       64.19565
C         66.94801       63.20698       64.15220
O         67.02076       63.90914       65.14777
C         66.45958       60.81179       64.81885
C         65.10293       60.83632       64.11628
O         66.27725       61.11557       66.17877
H         68.78753       61.01069       65.72716
H         67.67554       61.45325       63.14934
H         66.88613       59.78497       64.70884
H         66.20952       60.25470       66.66886
H         64.44508       60.07084       64.57767
H         64.62021       61.83038       64.23349
H         65.21618       60.60762       63.03677
N         66.35359       63.66266       63.00468
C         65.77569       64.98954       62.78813
C         64.59791       65.27120       63.72245
O         64.75586       65.23324       64.93105
C         66.84800       66.11480       62.86930
C         68.10833       65.82508       62.00994
C         66.24504       67.48001       62.48003
C         67.85622       65.66018       60.50772
H         66.30448       63.01634       62.20219
H         65.38864       65.01264       61.74580
H         67.19156       66.18980       63.91763
H         68.59275       64.89941       62.37664
H         68.83708       66.65342       62.15421
H         65.84639       67.46745       61.44465
H         65.40881       67.75397       63.15437
H         67.01892       68.27239       62.55178
H         67.42341       66.58000       60.06559
H         68.82197       65.46099       59.99719
H         67.18391       64.80086       60.30963
N         63.39658       65.66438       63.21261
C         62.29845       66.13458       64.06140
C         61.62344       65.04140       64.88780
O         60.78638       65.38618       65.71284
C         61.22444       66.86811       63.20696
C         60.49403       65.93876       62.22372
O         61.81973       67.91240       62.47989
H         63.31515       65.75277       62.18958
H         62.72341       66.88822       64.76253
H         60.44132       67.29070       63.88032
H         61.95175       68.66691       63.11137
H         61.19294       65.48307       61.49300
H         59.96808       65.12462       62.76518
H         59.73458       66.51763       61.65694
N         61.84053       63.71480       64.66082
C         61.01874       62.67640       65.28290
C         61.27021       62.55878       66.78198
O         62.35844       62.16081       67.17185
C         61.25972       61.31792       64.57074
C         60.40004       60.17667       65.12662
O         61.04050       61.44216       63.18620
H         62.51415       63.44099       63.92995
H         59.95248       62.94557       65.10805
H         62.32031       61.03410       64.71529
H         60.09870       61.72829       63.05298
H         60.62821       59.24031       64.57425
H         60.62213       60.00391       66.19986
H         59.32084       60.40970       65.00973
N         60.28106       62.86352       67.67735
C         60.38746       62.68312       69.12476
C         61.57559       63.43107       69.69893
O         62.51663       62.80974       70.17572
C         60.37384       61.18953       69.52430
C         59.03852       60.51900       69.15390
C         58.89129       59.15431       69.84036
C         57.52296       58.52605       69.53824
N         57.33439       57.29076       70.29904
H         59.39040       63.23891       67.31803
H         59.48429       63.11638       69.61127
H         60.46640       61.15703       70.63327
H         61.22877       60.62891       69.08796
H         58.95222       60.42187       68.05007
H         58.20383       61.15851       69.51728
H         58.96966       59.30642       70.93993
H         59.70331       58.46788       69.51666
H         57.44337       58.31307       68.44930
H         56.71484       59.23983       69.81572
H         56.40037       56.88290       70.06524
H         58.08024       56.59831       70.06018
H         57.36001       57.49696       71.32482
N         61.56381       64.79227       69.71823
C         62.65941       65.59923       70.24036
C         63.21998       66.48705       69.13939
O         64.35809       66.24052       68.77831
C         62.25054       66.38080       71.50258
C         61.97593       65.45410       72.69345
C         61.62421       66.25881       73.91268
O         60.54270       66.10891       74.45781
O         62.50405       67.14814       74.41345
H         60.72786       65.26308       69.35319
H         63.49936       64.93727       70.55573
H         61.33987       66.97760       71.32209
H         63.08872       67.05900       71.77923
H         62.88250       64.85172       72.91969
H         61.14256       64.76127       72.44562
N         62.56652       67.51577       68.51884
C         61.25409       68.03526       68.83293
H         60.46821       67.27009       68.72012
H         61.24971       68.48615       69.84224
H         61.00948       68.85890       68.12918
H         63.06368       67.99783       67.75984
Ca        66.39490       66.02557       67.00143
O         65.19883       63.37110       67.47343
H         65.19290       62.69047       68.19181
H         64.32590       63.82953       67.55264
O         66.96136       67.69016       69.45270
H         67.18713       68.16702       70.28989
H         66.85262       68.40699       68.77857

Ca 1.0



