%chk=apoCaM-CA-Ng.loop4.water3.frame43.chk
%nprocshared=20
%mem=10GB
%nosave
#b3lyp/svp scf=(tight,noincore,xqc) Test 
#IOP(5/87=12) Density=Current Pop=(MK,readradii) iop(6/33=2) iop(6/42=6)

apoCaM-CA-Ng.loop4.water3.frame43 

   -3  1 
C         36.04532       49.71233       59.09559
C         34.55744       49.88907       59.13806
O         33.98605       49.67851       60.19183
H         36.45597       49.94366       58.09137
H         36.51510       50.39350       59.83700
H         36.30139       48.66398       59.35593
N         33.86730       50.29769       58.03470
C         32.42615       50.53893       57.98528
C         32.02942       51.64162       58.95046
O         31.20468       51.42404       59.81783
C         31.59811       49.22200       58.03455
C         31.66949       48.35579       59.27059
O         31.04879       48.70541       60.41641
O         32.16716       47.24394       59.18966
H         34.40007       50.48858       57.17237
H         32.19788       50.94815       56.97458
H         31.95603       48.61116       57.17537
H         30.52780       49.45095       57.83948
N         32.61185       52.87165       58.81224
C         32.36990       54.08675       59.59743
C         30.98911       54.68568       59.33375
O         30.93072       55.74917       58.73098
C         32.68674       53.91924       61.11238
C         32.53802       55.25519       61.89763
C         34.09131       53.32670       61.32553
C         33.44921       56.39671       61.43348
H         33.31887       52.96448       58.06559
H         33.09956       54.82731       59.20161
H         31.96314       53.20140       61.55338
H         32.73655       55.06127       62.97447
H         31.49873       55.62352       61.81477
H         34.87618       53.96974       60.87762
H         34.29766       53.20929       62.41075
H         34.16540       52.32366       60.86005
H         33.25976       57.29120       62.06207
H         34.51755       56.12097       61.52832
H         33.23613       56.68912       60.38633
N         29.83842       54.08178       59.74523
C         28.51557       54.62057       59.46028
C         28.26824       55.95459       60.17194
O         28.01476       56.90795       59.44840
C         27.42237       53.56045       59.70174
C         27.54119       52.42436       58.71575
O         27.44716       52.63830       57.51696
O         27.73104       51.16450       59.14667
H         29.88727       53.19903       60.26085
H         28.45455       54.83297       58.36663
H         26.42061       54.02027       59.55663
H         27.49727       53.14593       60.72162
N         28.34950       56.19370       61.52000
C         28.69336       55.26251       62.58303
C         27.53218       54.40475       63.03068
O         26.47643       54.47118       62.41721
H         28.22919       57.17479       61.81915
H         28.97506       55.86810       63.47078
H         29.57070       54.66586       62.29314
N         27.59580       53.59399       64.13141
C         28.71084       53.53010       65.08928
C         30.01787       53.04700       64.45334
O         29.96120       52.54034       63.34233
C         28.28692       52.63382       66.28944
C         28.17468       51.16931       65.94256
O         27.38520       50.78391       65.09550
O         28.94040       50.26974       66.58974
H         26.74003       53.05833       64.34533
H         28.85962       54.56285       65.46751
H         27.31197       52.99153       66.68438
H         28.98711       52.72379       67.12913
N         31.24743       53.12944       65.05405
C         31.56229       53.68976       66.36029
C         31.49177       55.19531       66.41460
O         31.30455       55.84428       65.39459
H         32.04532       52.74525       64.53606
H         32.61611       53.44018       66.61194
H         30.96494       53.21895       67.14969
N         31.67791       55.81998       67.61315
C         31.75556       57.27081       67.75413
C         33.09559       57.81480       67.27116
O         33.22373       59.03077       67.21150
C         31.63627       57.68263       69.24095
C         30.26231       57.39070       69.85610
C         30.25689       57.73430       71.32759
N         30.52019       58.99267       71.75629
O         30.01530       56.85920       72.14538
H         31.77445       55.23226       68.45631
H         30.92387       57.74030       67.18239
H         31.81641       58.77550       69.33180
H         32.42514       57.15626       69.82046
H         30.01406       56.31446       69.73470
H         29.48609       57.99032       69.33297
H         30.72621       59.75169       71.09139
H         30.52361       59.21075       72.76394
N         34.16709       57.00136       67.02140
C         35.51075       57.51971       66.76032
C         36.46887       57.20366       67.90702
O         37.59259       57.68453       67.86029
C         36.06006       57.03280       65.39814
C         35.17425       57.54152       64.25773
C         36.20894       55.50457       65.32228
H         34.05613       55.98115       67.09884
H         35.48577       58.63150       66.71772
H         37.06882       57.48168       65.25637
H         35.10056       58.64995       64.29167
H         35.62030       57.25986       63.28256
H         34.15190       57.11366       64.33340
H         35.22689       54.99577       65.41088
H         36.65807       55.21728       64.34812
H         36.87907       55.13918       66.12868
N         36.08454       56.46681       68.99316
C         36.90629       56.30500       70.18583
C         37.23150       54.84832       70.50821
O         38.39417       54.57749       70.77782
C         36.27092       57.08011       71.37400
C         34.84638       56.76800       71.78628
N         34.26631       57.49605       72.76834
O         34.20041       55.88920       71.24308
H         35.14100       56.06614       69.02217
H         37.89076       56.80949       70.05397
H         36.27560       58.15545       71.08868
H         36.92707       56.96754       72.26494
H         34.78345       58.25339       73.23829
H         33.29354       57.30859       73.05441
N         36.28332       53.86641       70.54290
C         36.54393       52.52309       71.05744
C         36.27189       51.43031       70.04102
O         35.26988       51.48750       69.34345
C         35.62487       52.26482       72.26896
C         35.87031       53.23381       73.39885
C         34.85060       54.10196       73.82043
C         37.11485       53.27025       74.05066
C         35.07424       54.99849       74.86853
C         37.33540       54.16534       75.10113
C         36.31476       55.03457       75.51224
O         36.51288       55.90369       76.52341
H         35.32038       54.07996       70.25566
H         37.59226       52.41767       71.41074
H         35.79092       51.23502       72.65655
H         34.56607       52.32778       71.93049
H         33.88226       54.08974       73.33604
H         37.91328       52.60342       73.75067
H         34.28073       55.66571       75.18015
H         38.29868       54.18071       75.59509
H         37.35481       55.95750       76.99757
N         37.08075       50.32634       70.02640
C         36.81036       49.05784       69.34665
C         36.70667       49.12537       67.82919
O         36.40641       48.10251       67.22859
C         35.67660       48.24864       70.03807
C         34.24859       48.80229       69.95108
C         33.28052       47.88199       70.64037
O         32.56323       48.32451       71.69159
O         33.13630       46.73313       70.25370
H         37.92304       50.33911       70.62232
H         37.69848       48.40882       69.52557
H         35.94243       48.13758       71.11361
H         35.67624       47.22851       69.59310
H         33.94841       48.91864       68.88773
H         34.18360       49.77417       70.47099
N         37.06208       50.24112       67.13235
C         37.13072       50.29037       65.67481
C         38.57720       50.39661       65.20342
O         38.78314       50.44627       63.99807
C         36.32721       51.50198       65.16534
C         34.81975       51.43228       65.44544
C         34.10716       50.45043       64.55341
O         33.25313       50.93845       63.63547
O         34.30484       49.24907       64.63342
H         37.37670       51.07787       67.64383
H         36.73451       49.36020       65.21614
H         36.46314       51.63466       64.06824
H         36.73682       52.40809       65.66341
H         34.41562       52.43865       65.20377
H         34.60632       51.23224       66.51661
N         39.63066       50.41128       66.07536
C         41.01412       50.49696       65.65335
H         41.56250       49.60140       66.01371
H         41.12210       50.55300       64.55015
H         41.47597       51.40325       66.09748
H         39.47320       50.35281       67.09053
Ca        32.06449       49.86844       62.05993
O         30.33080       48.57336       64.39390
H         29.60647       49.16287       64.06750
H         29.97241       47.65765       64.27968
O         32.91860       46.82848       62.36977
H         32.27740       47.02515       63.09784
H         33.68880       47.42372       62.55054
O         28.50996       50.43106       62.03736
H         29.07184       50.40643       61.22344
H         27.60440       50.17964       61.72764

Ca 1.0



