%chk=apoCaM-CA-Ng.loop4.water6.frame910.chk
%nprocshared=20
%mem=10GB
%nosave
#b3lyp/svp scf=(tight,noincore,xqc) Test 
#IOP(5/87=12) Density=Current Pop=(MK,readradii) iop(6/33=2) iop(6/42=6)

apoCaM-CA-Ng.loop4.water6.frame910 

   -3  1 
C         91.02040        0.29266       44.79695
C         90.78348       -0.20119       46.19262
O         91.25345       -1.27366       46.54066
H         91.54704        1.27003       44.83208
H         91.63787       -0.42766       44.22001
H         90.04576        0.42482       44.28130
N         90.06433        0.56134       47.06030
C         89.76339        0.19478       48.44031
C         91.04116       -0.04150       49.23630
O         91.12003       -1.00242       49.98821
C         88.79941       -1.01832       48.49903
C         87.48404       -0.78464       47.79898
O         86.65479       -1.67963       47.77040
O         87.19984        0.39411       47.21043
H         89.71879        1.47654       46.73097
H         89.24982        1.06301       48.91072
H         88.57590       -1.26080       49.56056
H         89.28804       -1.90372       48.03870
N         92.10553        0.79587       49.09005
C         93.35478        0.62483       49.83140
C         93.16160        1.10233       51.26695
O         92.44089        2.07546       51.44337
C         94.55210        1.34271       49.13278
C         94.40385        2.88868       49.10053
C         94.75450        0.74611       47.72237
C         95.60408        3.60515       48.48035
H         92.03074        1.54895       48.39276
H         93.62492       -0.44716       49.80738
H         95.46631        1.10511       49.72144
H         94.31367        3.26057       50.14231
H         93.49570        3.19413       48.54257
H         93.89298        0.97224       47.05939
H         95.67763        1.13328       47.24771
H         94.87042       -0.35736       47.78435
H         95.45464        4.70261       48.55614
H         96.53761        3.33365       49.01679
H         95.70751        3.35848       47.40422
N         93.76452        0.54703       52.36078
C         94.67266       -0.59845       52.37222
C         93.95088       -1.85156       51.93189
O         94.41926       -2.52103       51.02066
C         95.23819       -0.82369       53.79684
C         96.05748        0.33117       54.32178
O         96.24607        1.33583       53.65275
O         96.59552        0.24968       55.55329
H         93.56256        0.99836       53.26776
H         95.53942       -0.40537       51.70090
H         95.89557       -1.72046       53.78896
H         94.40313       -1.01017       54.50666
N         92.76988       -2.20477       52.51113
C         91.99362       -3.34261       52.06019
C         92.60765       -4.66864       52.42842
O         93.60640       -4.72368       53.13324
H         92.36362       -1.59764       53.23901
H         91.86339       -3.27928       50.95873
H         90.98568       -3.30880       52.52693
N         92.00345       -5.80242       51.98007
C         92.41952       -7.15728       52.33222
C         93.84248       -7.53623       51.91117
O         94.26301       -8.62028       52.29274
C         91.36768       -8.17964       51.82239
C         91.06443       -8.09214       50.34642
O         91.92069       -8.32192       49.51343
O         89.82198       -7.76922       49.93799
H         91.15815       -5.68145       51.40053
H         92.40886       -7.23001       53.44277
H         90.41731       -7.97380       52.36191
H         91.67689       -9.21507       52.08131
N         94.66726       -6.71811       51.18783
C         96.05933       -7.06498       50.90886
C         96.23793       -8.24184       49.96364
O         97.37165       -8.63269       49.72854
H         94.33565       -5.79914       50.86569
H         96.57121       -7.27690       51.87248
H         96.56628       -6.19232       50.44183
N         95.17276       -8.81671       49.34257
C         95.23468       -9.87922       48.34951
C         96.02893       -9.43049       47.13566
O         96.84944      -10.16951       46.60962
C         95.65918      -11.23185       48.96101
C         94.65335      -11.66962       50.04419
C         94.93725      -13.05591       50.56150
N         95.15733      -13.27560       51.87895
O         94.93956      -13.99892       49.78404
H         94.24225       -8.43751       49.52044
H         94.19804      -10.01942       47.96635
H         96.68459      -11.17491       49.38600
H         95.65542      -11.99363       48.15079
H         93.63012      -11.68102       49.60993
H         94.66396      -10.93726       50.87965
H         95.14323      -12.49989       52.55683
H         95.32937      -14.23105       52.22619
N         95.78546       -8.18860       46.63612
C         96.33845       -7.63696       45.40754
C         95.20963       -7.09854       44.52805
O         95.50842       -6.44754       43.53668
C         97.33552       -6.48072       45.73185
C         96.70706       -5.35394       46.57310
C         98.59754       -7.01215       46.42081
H         95.14341       -7.57981       47.16682
H         96.89748       -8.40459       44.82705
H         97.67217       -6.03718       44.76771
H         97.43680       -4.52723       46.70483
H         95.81028       -4.93730       46.06920
H         96.41746       -5.71790       47.58112
H         99.32165       -6.18351       46.57719
H         98.35659       -7.46792       47.40251
H         99.08828       -7.77421       45.77780
N         93.88965       -7.28830       44.84078
C         92.82702       -6.55023       44.17552
C         91.45379       -7.09196       44.53928
O         91.15388       -7.26465       45.71137
C         92.88775       -5.06862       44.61381
C         91.75595       -4.26273       44.01836
N         90.81254       -3.70982       44.81704
O         91.67851       -4.12908       42.80642
H         93.62359       -7.92108       45.60736
H         92.95923       -6.61309       43.07293
H         93.85110       -4.60611       44.31392
H         92.82789       -5.02956       45.72433
H         90.84941       -3.83007       45.84005
H         90.03067       -3.17346       44.41319
N         90.53749       -7.25679       43.54266
C         89.12412       -7.58845       43.74497
C         88.40791       -7.65757       42.38849
O         88.92957       -7.17234       41.39405
C         88.46264       -6.49208       44.63711
C         86.98435       -6.65377       44.89878
C         86.48327       -7.76804       45.59184
C         86.09126       -5.66130       44.46457
C         85.10793       -7.89157       45.82555
C         84.72033       -5.78691       44.69378
C         84.22196       -6.90156       45.37222
O         82.89489       -7.00674       45.58576
H         90.87430       -7.07916       42.58702
H         89.06977       -8.58715       44.23028
H         88.64346       -5.51338       44.14010
H         88.94729       -6.44300       45.63090
H         87.15489       -8.53835       45.94861
H         86.45873       -4.78665       43.94701
H         84.73171       -8.75538       46.35847
H         84.04621       -5.01469       44.34412
H         82.50557       -7.75951       46.05252
N         87.18982       -8.25479       42.27971
C         86.42580       -8.29714       41.04048
C         85.07914       -7.62403       41.27393
O         84.10255       -8.32945       41.48703
C         86.26682       -9.74801       40.54097
C         87.60057      -10.32236       40.03817
C         87.40414      -11.69271       39.45734
O         86.95457      -12.69802       40.23166
O         87.65115      -11.90204       38.27983
H         86.77754       -8.70588       43.10813
H         86.94256       -7.78565       40.21409
H         85.56967       -9.73775       39.67244
H         85.83101      -10.39029       41.33738
H         88.34096      -10.37437       40.86350
H         88.00556       -9.65267       39.24507
N         84.91162       -6.26504       41.27901
C         85.96065       -5.28176       40.99511
C         86.53087       -5.41296       39.58928
O         85.95859       -6.09977       38.75302
C         85.46816       -3.82450       41.21963
C         84.20744       -3.44518       40.41033
C         83.85763       -1.98652       40.52757
O         84.64255       -1.13207       41.21291
O         82.85884       -1.56357       39.96802
H         83.96829       -5.92822       41.51387
H         86.79541       -5.46828       41.70031
H         86.29839       -3.13416       40.95297
H         85.23844       -3.66872       42.29407
H         83.33491       -4.02285       40.77753
H         84.35645       -3.67313       39.33463
N         87.71428       -4.80176       39.29291
C         88.39674       -4.93191       38.02168
H         89.39507       -5.38991       38.19314
H         87.84179       -5.57120       37.30432
H         88.54006       -3.92767       37.57257
H         88.18562       -4.24255       40.02014
Ca        84.18274        1.07951       41.19772
O         85.88916        0.64853       43.59704
H         85.56780        0.16163       44.39678
H         86.81267        0.32035       43.45775
O         81.19135        0.93378       40.88375
H         80.63928        1.15938       41.67385
H         80.71030        1.33741       40.11862
O         82.56786        0.52534       43.69775
H         82.72572       -0.44914       43.77207
H         82.88501        0.89741       44.55854
O         84.96927        0.95901       38.33423
H         85.88555        1.11477       37.99333
H         84.38244        1.09294       37.54833
O         83.63518        3.51893       42.89808
H         83.55740        4.44587       42.55943
H         82.86669        3.41319       43.51309
O         82.84424        3.55838       39.75601
H         82.09399        3.94586       40.27327
H         82.46315        3.38160       38.85953

Ca 1.0



