%chk=apoCaM-CA-Ng.loop2.water4.frame1270.chk
%nprocshared=20
%mem=10GB
%nosave
#b3lyp/svp scf=(tight,noincore,xqc) Test 
#IOP(5/87=12) Density=Current Pop=(MK,readradii) iop(6/33=2) iop(6/42=6)

apoCaM-CA-Ng.loop2.water4.frame1270 

   -2  1 
C         63.58224       61.86827        6.54431
C         62.42001       61.19638        5.85965
O         62.57156       60.81032        4.71005
H         64.46169       61.91250        5.86686
H         63.31992       62.90718        6.83099
H         63.87486       61.29379        7.44688
N         61.21809       60.99135        6.47433
C         60.91702       61.41004        7.84209
C         59.47225       61.85428        7.99866
O         58.63701       61.51870        7.17348
C         61.26921       60.29439        8.85047
C         60.52739       58.99205        8.65204
O         60.77749       57.96257        9.48212
O         59.71359       58.84668        7.75372
H         60.49158       60.49674        5.93542
H         61.52835       62.30469        8.08126
H         61.06565       60.65985        9.87969
H         62.35424       60.07516        8.77635
N         59.11878       62.66161        9.03897
C         57.75711       63.14379        9.25113
C         57.22936       63.82058        8.00625
O         57.87708       64.72962        7.50337
C         57.71651       64.13167       10.42258
H         59.85989       62.96897        9.68842
H         57.10345       62.28166        9.50801
H         58.07629       63.64001       11.35043
H         58.35858       65.01513       10.21311
H         56.67470       64.48125       10.59033
N         56.03865       63.43024        7.46482
C         55.49312       64.03292        6.25573
C         54.41745       65.03197        6.64133
O         54.07349       65.12060        7.81365
C         54.89071       62.94743        5.32535
C         55.69330       61.67345        5.26537
O         55.17883       60.62967        5.63757
O         56.97129       61.65088        4.85320
H         55.47198       62.72104        7.95576
H         56.30278       64.56940        5.71327
H         54.73459       63.36588        4.30726
H         53.89607       62.65274        5.72432
N         53.82408       65.82009        5.70362
C         52.73858       66.73158        6.03443
C         51.43302       66.01410        6.35053
O         50.45342       66.69456        6.61778
H         54.15705       65.78355        4.72801
H         52.53696       67.37806        5.15291
H         53.04701       67.38988        6.87542
N         51.32306       64.65596        6.26400
C         50.07131       63.91752        6.36443
C         50.14131       62.81364        7.42212
O         49.41607       61.83539        7.30079
C         49.76065       63.37449        4.94745
C         50.88309       62.52236        4.39173
N         51.62494       62.95937        3.34530
O         51.14272       61.44576        4.90722
H         52.14661       64.09922        6.01624
H         49.22276       64.58268        6.63783
H         49.62403       64.26083        4.28813
H         48.80593       62.80701        4.92801
H         51.44320       63.87662        2.91142
H         52.40464       62.39134        2.98230
N         50.95527       62.92465        8.51546
C         51.06714       61.90831        9.56200
C         49.76562       61.65688       10.30823
O         48.75735       62.25362        9.95723
H         51.54458       63.76426        8.61414
H         51.82663       62.25267       10.29535
H         51.41513       60.95393        9.11067
N         49.66835       60.78464       11.35903
C         50.77409       60.05772       11.98628
C         50.58901       58.55750       11.87248
O         49.50411       58.05732       12.13734
C         50.87718       60.41157       13.48727
C         51.27017       61.87092       13.70609
O         49.65910       60.14125       14.13619
H         48.73154       60.65212       11.77327
H         51.74851       60.31926       11.52486
H         51.68882       59.77673       13.92040
H         49.87188       59.93782       15.08415
H         50.50094       62.55481       13.29241
H         51.37818       62.06318       14.79478
H         52.24684       62.07588       13.21755
N         51.65832       57.77368       11.54860
C         51.61003       56.32075       11.44393
C         52.60641       55.70577       12.43867
O         53.77924       56.03945       12.34041
C         51.97641       55.91051        9.98663
C         50.98445       56.55967        8.98486
C         51.98956       54.37686        9.84371
C         51.33953       56.31632        7.51798
H         52.56540       58.22938       11.36330
H         50.58223       55.96422       11.63621
H         52.99971       56.28803        9.76119
H         50.98918       57.66167        9.12575
H         49.95351       56.19167        9.18012
H         50.98346       53.95925       10.05824
H         52.30934       54.06578        8.83018
H         52.72083       53.92580       10.54304
H         52.36005       56.69853        7.30248
H         51.28154       55.24144        7.25623
H         50.61518       56.85738        6.87351
N         52.27833       54.76906       13.38674
C         50.93088       54.27139       13.64638
C         50.94285       52.87836       14.28037
O         51.80694       52.56975       15.08894
C         50.17092       55.27489       14.53446
C         48.73119       54.88547       14.72645
O         47.98236       54.80683       13.76528
O         48.25782       54.63262       15.96142
H         53.05279       54.38422       13.95064
H         50.41007       54.14524       12.67659
H         50.19253       56.28315       14.07226
H         50.67656       55.34132       15.52288
N         49.97739       51.98451       13.91846
C         49.86577       50.60442       14.39636
C         48.68573       49.95381       13.66739
O         47.60976       50.53996       13.70970
C         49.61680       50.52076       15.92162
C         49.66535       49.07034       16.35055
C         48.48377       48.36273       16.62685
C         50.90104       48.39924       16.42712
C         48.53685       47.00337       16.95416
C         50.94954       47.04354       16.76739
C         49.76765       46.34465       17.02409
H         49.28114       52.31332       13.23085
H         50.81459       50.07979       14.17034
H         48.62609       50.97385       16.14508
H         50.37113       51.08069       16.51300
H         47.52169       48.85386       16.55912
H         51.82465       48.92410       16.21549
H         47.62229       46.45722       17.14477
H         51.90227       46.53184       16.82086
H         49.80539       45.29174       17.27320
N         48.76274       48.77481       12.97455
C         49.87966       47.83852       12.97074
C         51.08930       48.27228       12.15663
O         52.04346       47.50708       12.12020
C         49.23620       46.54097       12.46847
C         48.21102       47.05520       11.48652
C         47.62715       48.23647       12.25165
H         50.23219       47.63358       13.99841
H         49.94003       45.76895       12.09342
H         48.65874       46.09397       13.31317
H         48.76619       47.44160       10.60213
H         47.45491       46.31671       11.14579
H         47.18986       48.96228       11.53127
H         46.85719       47.92142       12.99125
N         51.17390       49.49720       11.56386
C         52.41088       50.02200       10.99319
C         52.14338       50.57501        9.59571
O         51.19924       51.33930        9.45614
C         52.89758       51.13808       11.94255
C         54.30919       51.67709       11.66054
C         55.40045       50.70908       12.05563
O         56.27307       51.05116       13.02269
O         55.51226       49.62159       11.51541
H         50.37241       50.14108       11.62160
H         53.18794       49.23723       10.97283
H         52.89499       50.76476       12.99129
H         52.16764       51.97294       11.88793
H         54.44195       52.58460       12.28826
H         54.40896       51.98169       10.59815
N         52.90303       50.28437        8.50059
C         54.09695       49.47101        8.52276
H         54.85614       49.94150        9.17555
H         53.86595       48.44246        8.86605
H         54.53270       49.41749        7.50204
H         52.63582       50.70257        7.59554
Ca        57.98472       59.63965        5.13479
O         56.53526       58.95425        8.32798
H         57.14615       58.34476        8.81359
H         55.65740       58.82597        8.76766
O         59.75771       59.95371        2.87036
H         59.73693       60.83860        3.31501
H         60.35162       59.40370        3.44098
O         56.66922       58.47517        2.86640
H         55.85170       58.97040        2.60894
H         56.68297       57.68177        2.27524
O         55.98717       56.89961        5.90152
H         55.83738       56.68196        4.94732
H         55.08121       57.07369        6.26141

Ca 1.0



