%chk=apoCaM-CA-Ng.loop4.water3.frame55.chk
%nprocshared=20
%mem=10GB
%nosave
#b3lyp/svp scf=(tight,noincore,xqc) Test 
#IOP(5/87=12) Density=Current Pop=(MK,readradii) iop(6/33=2) iop(6/42=6)

apoCaM-CA-Ng.loop4.water3.frame55 

   -3  1 
C         41.01352       44.96422       80.32988
C         39.73907       44.18493       80.16334
O         38.77616       44.74506       79.67988
H         41.82233       44.48976       79.73421
H         40.89174       46.01190       79.97541
H         41.30709       44.98232       81.39904
N         39.68649       42.87242       80.53146
C         38.55769       41.94613       80.37121
C         38.15355       41.68296       78.91306
O         37.05936       42.41785       78.43576
C         37.37312       42.15699       81.34076
C         36.79416       43.53804       81.44406
O         36.25477       44.07051       80.49050
O         36.81882       44.17410       82.63126
H         40.55045       42.46897       80.92372
H         38.94600       40.94606       80.66077
H         37.72746       41.87672       82.35294
H         36.56326       41.44808       81.06778
N         39.31599       41.50887       78.02725
C         39.19402       40.99847       76.64054
C         38.23724       39.80983       76.44497
O         38.70500       38.74823       76.05581
C         39.02539       42.16538       75.63004
C         39.39379       41.76388       74.16752
C         39.89076       43.37626       76.05364
C         40.80278       41.15810       73.99373
H         39.99527       40.88863       78.52950
H         40.21023       40.60443       76.42527
H         37.97407       42.51740       75.64603
H         39.33232       42.68334       73.54426
H         38.65923       41.03943       73.75730
H         39.55244       43.77752       77.03052
H         40.96196       43.10993       76.15336
H         39.79725       44.20139       75.32372
H         41.06712       41.08984       72.92126
H         41.58616       41.76244       74.49428
H         40.83925       40.12242       74.39113
N         36.90023       39.89981       76.70160
C         35.97103       38.78091       76.61484
C         35.49538       38.49555       75.18999
O         35.64223       37.34681       74.79667
C         34.80423       38.93676       77.61805
C         35.27889       38.81017       79.04514
O         35.86309       37.80110       79.41141
O         35.02160       39.78336       79.93675
H         36.51639       40.77877       77.04283
H         36.48844       37.85482       76.95900
H         34.07556       38.11371       77.45538
H         34.28152       39.90455       77.48411
N         34.92130       39.38740       74.32209
C         34.77972       40.82325       74.48039
C         33.46218       41.23543       75.10273
O         32.75119       40.37447       75.59956
H         34.68272       39.02829       73.38427
H         34.82060       41.26432       73.46266
H         35.64297       41.23865       75.02319
N         33.03230       42.53672       75.13079
C         33.63587       43.65301       74.39503
C         35.13281       43.78516       74.61556
O         35.56700       43.57831       75.73504
C         32.90034       44.98346       74.68310
C         32.94998       45.41076       76.12670
O         31.80986       45.49861       76.83844
O         34.01099       45.70248       76.65490
H         32.15283       42.72683       75.63685
H         33.46132       43.41411       73.33073
H         31.83600       44.85575       74.39026
H         33.32576       45.79783       74.05659
N         36.01692       44.03675       73.60147
C         35.65385       44.43537       72.24810
C         36.00803       43.39693       71.22045
O         36.56951       42.35964       71.54750
H         37.02305       43.97980       73.81193
H         36.17977       45.38033       71.99929
H         34.57962       44.66349       72.14547
N         35.65356       43.62110       69.92440
C         35.93610       42.68385       68.84570
C         37.40324       42.79116       68.42477
O         37.92551       41.86439       67.82221
C         34.98426       42.98575       67.66883
C         34.79749       41.81751       66.69398
C         33.80421       42.20262       65.62271
N         32.62979       41.54063       65.48517
O         34.06107       43.13398       64.87440
H         35.13340       44.48614       69.70792
H         35.69415       41.66701       69.23151
H         35.32381       43.90884       67.14643
H         33.97334       43.18396       68.09052
H         34.41096       40.94303       67.26499
H         35.75896       41.53141       66.22238
H         32.38308       40.75519       66.10482
H         31.95629       41.82002       64.75566
N         38.12331       43.91358       68.73833
C         39.54366       44.11854       68.46125
C         39.82529       45.40287       67.68124
O         40.97308       45.59614       67.30229
C         40.32518       44.14347       69.80387
C         40.33574       42.74775       70.42903
C         39.75396       45.16481       70.81138
H         37.64337       44.66892       69.24065
H         39.93565       43.28577       67.83506
H         41.38628       44.41365       69.60567
H         39.30536       42.38235       70.62214
H         40.84879       42.03675       69.74625
H         40.89633       42.77628       71.38322
H         39.76690       46.19186       70.38908
H         38.71459       44.91460       71.11183
H         40.35982       45.15659       71.73917
N         38.85785       46.32696       67.41368
C         39.09280       47.54597       66.65282
C         38.88616       48.79517       67.49969
O         39.78010       49.63169       67.48939
C         38.28177       47.53565       65.33132
C         36.78293       47.31889       65.38221
N         36.08748       47.25046       64.22513
O         36.18698       47.18063       66.43603
H         37.90543       46.17023       67.75403
H         40.15184       47.59722       66.30682
H         38.68944       46.70392       64.71626
H         38.48421       48.48511       64.78704
H         36.56500       47.35044       63.31777
H         35.06964       47.08816       64.23709
N         37.75835       49.01617       68.24111
C         37.51302       50.27902       68.93749
C         37.29956       50.08909       70.42150
O         37.06493       48.96971       70.84710
C         36.25642       50.93443       68.34051
C         36.37080       51.09633       66.84621
C         35.48251       50.41831       65.99449
C         37.36552       51.91585       66.29025
C         35.58495       50.56202       64.60931
C         37.46521       52.05938       64.90390
C         36.57213       51.38432       64.05870
O         36.65090       51.52032       62.72020
H         37.02772       48.29706       68.28990
H         38.38182       50.96012       68.81635
H         36.07239       51.92642       68.80474
H         35.38328       50.28450       68.57829
H         34.71218       49.77365       66.40012
H         38.06197       52.44362       66.92938
H         34.89446       50.03340       63.96427
H         38.23540       52.69641       64.48887
H         37.30783       52.09328       62.30012
N         37.29985       51.18917       71.24111
C         37.05454       51.22729       72.68387
C         38.21886       50.71099       73.51846
O         38.69370       51.44748       74.37312
C         35.70726       50.58286       73.07990
C         34.54338       51.24017       72.31846
C         33.20985       50.75334       72.80340
O         32.90903       49.57429       72.71012
O         32.32945       51.62645       73.33065
H         37.44858       52.10652       70.79464
H         36.95842       52.30065       72.96926
H         35.55584       50.75154       74.17067
H         35.70929       49.48552       72.90738
H         34.63183       51.02870       71.23139
H         34.58871       52.34117       72.46660
N         38.70811       49.45362       73.37026
C         39.70900       48.87125       74.25034
C         41.09099       49.48524       74.08811
O         41.97816       49.12307       74.84993
C         39.76863       47.34282       74.04284
C         38.39039       46.64727       74.04496
C         37.58478       46.97432       75.26039
O         37.40043       46.03348       76.18155
O         37.09844       48.08127       75.42291
H         38.30161       48.85642       72.66091
H         39.37900       49.04668       75.29762
H         40.38773       46.90487       74.85853
H         40.25597       47.10808       73.07480
H         38.58730       45.56219       73.99981
H         37.77453       46.87676       73.15218
N         41.35375       50.43087       73.14187
C         42.64705       51.06463       73.02384
H         43.41650       50.32308       72.72300
H         42.59849       51.86744       72.25771
H         42.92760       51.52576       73.99470
H         40.61963       50.73851       72.49057
Ca        37.05024       44.55183       77.75339
O         34.09440       43.19477       78.36090
H         33.93382       42.53511       79.08011
H         33.20434       43.32976       77.95142
O         34.28594       46.43633       79.92380
H         34.97427       46.40101       80.63471
H         34.09227       47.40155       79.81771
O         36.52471       47.80646       78.48432
H         36.34293       48.26120       79.34372
H         36.75956       48.54451       77.87008

Ca 1.0



