%chk=apoCaM-CA-Ng.loop3.water4.frame237.chk
%nprocshared=20
%mem=10GB
%nosave
#b3lyp/svp scf=(tight,noincore,xqc) Test 
#IOP(5/87=12) Density=Current Pop=(MK,readradii) iop(6/33=2) iop(6/42=6)

apoCaM-CA-Ng.loop3.water4.frame237 

   0  1 
C         19.10527       45.80754       80.42531
C         19.65626       47.06170       81.03416
O         19.60648       48.09582       80.38487
H         18.03319       45.95188       80.17802
H         19.66042       45.57681       79.49657
H         19.20443       44.94180       81.11174
N         20.21040       47.04509       82.28200
C         20.78380       48.22043       82.93554
C         21.99545       48.76167       82.17483
O         22.38444       49.89791       82.40908
C         19.71002       49.30967       83.16268
C         18.51228       48.76523       83.89271
O         17.40707       48.81292       83.37628
O         18.65094       48.22201       85.11731
H         20.23320       46.15480       82.80258
H         21.14572       47.91994       83.94518
H         19.38533       49.74251       82.19397
H         20.14394       50.13350       83.76969
N         22.69613       47.96624       81.31363
C         23.87927       48.39013       80.56968
C         23.74069       48.09289       79.07653
O         24.72611       48.22906       78.36505
C         25.10698       47.64139       81.13306
C         25.41953       48.08870       82.56805
C         26.67983       47.40586       83.10844
C         27.04253       47.96636       84.49021
N         28.24801       47.32937       85.01710
H         22.41793       46.97853       81.20900
H         24.07390       49.48016       80.67855
H         25.99818       47.88542       80.51369
H         24.94106       46.54166       81.08946
H         24.56340       47.86332       83.24019
H         25.58685       49.18867       82.55889
H         27.52922       47.59358       82.41524
H         26.50777       46.30905       83.17454
H         26.19913       47.80158       85.19678
H         27.21928       49.06247       84.40459
H         29.05191       47.48450       84.36600
H         28.47888       47.75296       85.94481
H         28.08575       46.30398       85.14221
N         22.55984       47.68587       78.52591
C         22.42384       47.22346       77.15088
C         21.55724       48.18053       76.34967
O         20.54369       48.64605       76.85106
C         21.79870       45.81198       77.19277
C         21.79062       45.06378       75.88675
O         22.29730       45.52761       74.87916
O         21.24216       43.83563       75.84355
H         21.71311       47.65699       79.10577
H         23.42176       47.13467       76.66688
H         20.75493       45.89568       77.55583
H         22.37311       45.18671       77.91025
N         21.87681       48.45702       75.05429
C         21.09877       49.31446       74.17357
C         19.63915       48.92062       74.10047
O         18.78831       49.79589       74.17627
H         22.70494       48.00109       74.64245
H         21.53162       49.22871       73.15181
H         21.18644       50.37535       74.48898
N         19.27834       47.61535       73.98277
C         17.89276       47.15546       73.87868
C         17.49598       46.34152       75.09189
O         18.33825       46.04574       75.93123
C         17.70192       46.25534       72.62726
C         18.58549       44.99982       72.71847
N         18.11492       43.92814       71.84889
O         19.88301       45.36871       72.37023
H         20.03462       46.92072       74.02034
H         17.20049       48.02199       73.80755
H         17.91942       46.80566       71.68598
H         16.63908       45.94058       72.57080
H         17.16777       43.63943       72.18620
H         18.72464       43.09493       72.01763
N         16.21821       45.87807       75.19405
C         15.80748       44.88384       76.16622
C         15.35672       43.63746       75.44101
O         15.21735       43.65986       74.22262
H         15.51754       46.17847       74.49713
H         14.98572       45.27243       76.80376
H         16.65801       44.60627       76.82420
N         15.14781       42.48354       76.12815
C         14.75449       41.24011       75.46954
C         15.74410       40.80651       74.40214
O         16.82386       41.36495       74.27180
C         14.61196       40.10407       76.50729
C         13.38764       40.28522       77.35920
C         13.48635       40.58084       78.72685
C         12.11967       40.12966       76.77526
C         12.32733       40.72672       79.49700
C         10.96582       40.26405       77.54678
C         11.06521       40.56514       78.91188
O          9.95752       40.69668       79.66833
H         15.28862       42.49335       77.15090
H         13.78801       41.41299       74.94550
H         15.54307       40.06985       77.11670
H         14.50968       39.10914       76.02260
H         14.45543       40.70423       79.19422
H         12.02717       39.88773       75.72296
H         12.41034       40.96098       80.55041
H          9.99732       40.12996       77.08175
H          9.06949       40.58268       79.30007
N         15.37341       39.80063       73.56575
C         16.18397       39.28223       72.47649
C         15.46185       39.59667       71.17529
O         16.03685       40.26778       70.32906
C         16.42797       37.76140       72.70803
C         17.17310       37.56385       74.05901
C         17.22426       37.14835       71.54365
C         17.38380       36.10397       74.45915
H         14.44178       39.38093       73.70355
H         17.17824       39.78399       72.44313
H         15.44366       37.24492       72.76275
H         16.57989       38.02579       74.87636
H         18.16058       38.07475       74.02310
H         16.68397       37.28542       70.58466
H         18.22569       37.62162       71.47263
H         17.35024       36.05511       71.67599
H         18.04388       35.57550       73.74330
H         17.87534       36.06902       75.45499
H         16.40760       35.57961       74.52835
N         14.17320       39.19764       70.97518
C         13.40695       39.53392       69.78094
C         13.98303       38.86118       68.55367
O         14.21435       39.54527       67.56658
C         11.92119       39.17422       69.95834
O         11.74897       37.80307       70.18381
H         13.70005       38.66831       71.72238
H         13.42124       40.63873       69.63453
H         11.36018       39.47817       69.04551
H         11.52982       39.75147       70.82806
H         10.79389       37.68674       70.42844
N         14.26335       37.52226       68.55424
C         14.77363       36.79143       67.39672
C         16.11802       37.31023       66.87999
O         16.54902       36.83252       65.83805
C         13.70596       36.77383       66.29084
H         14.09790       36.98190       69.41644
H         14.92574       35.72779       67.68661
H         14.03859       36.13858       65.44206
H         12.76618       36.33363       66.69075
H         13.48665       37.78969       65.90585
N         16.85398       38.24957       67.54987
C         18.11476       38.79709       67.05536
C         19.26934       38.43670       67.97905
O         19.02842       37.85188       69.02043
C         17.96743       40.31699       66.92273
H         16.52523       38.59878       68.45856
H         18.35212       38.37804       66.05376
H         17.73886       40.77082       67.91203
H         18.89276       40.77931       66.52278
H         17.13142       40.55346       66.22929
N         20.55733       38.73444       67.62525
C         21.77836       38.39562       68.36984
C         22.03008       36.90305       68.49365
O         22.94222       36.42334       67.83238
C         21.87279       39.09156       69.73916
C         22.19939       40.56913       69.55790
C         22.23913       41.27601       70.86612
O         23.01722       40.95965       71.75292
O         21.40602       42.30371       71.02426
H         20.69726       39.22805       66.72993
H         22.63499       38.77038       67.76141
H         22.71208       38.65408       70.32438
H         20.93586       38.94738       70.32036
H         21.42838       41.04914       68.91582
H         23.18955       40.68203       69.06491
N         21.34396       36.10942       69.36048
C         21.66235       34.70765       69.51056
H         22.71391       34.60027       69.85504
H         20.99319       34.24461       70.26516
H         21.53501       34.18301       68.54042
H         20.61188       36.49700       69.96641
Ca        21.22088       43.62662       72.76863
O         20.20381       41.27040       74.37610
H         19.49791       41.51359       75.02639
H         19.81519       40.52698       73.85039
O         23.90079       42.37983       75.12673
H         23.86897       41.55585       75.67451
H         24.58185       42.94680       75.56883
O         22.79404       46.13890       71.78889
H         23.37228       46.58335       72.45820
H         22.06294       46.78578       71.62575
O         24.81089       43.90632       72.66300
H         25.23926       44.74965       72.37078
H         25.46799       43.20222       72.43358

Ca 1.0



