%chk=apoCaM-CA-Ng.loop1.water3.frame301.chk
%nprocshared=20
%mem=10GB
%nosave
#b3lyp/svp scf=(tight,noincore,xqc) Test 
#IOP(5/87=12) Density=Current Pop=(MK,readradii) iop(6/33=2) iop(6/42=6)

apoCaM-CA-Ng.loop1.water3.frame301 

   0  1 
C         56.13035       53.34746       26.91205
C         56.67981       54.44287       26.04638
O         57.26599       55.38302       26.56359
H         55.03115       53.27833       26.76676
H         56.59400       52.37861       26.63136
H         56.33543       53.54782       27.98497
N         56.51758       54.37977       24.69574
C         57.01637       55.39379       23.76707
C         56.30377       56.74909       23.86902
O         56.63685       57.62315       23.08451
C         56.99228       54.84568       22.31875
C         55.62086       54.49940       21.81023
O         54.76844       55.36272       21.68771
O         55.33849       53.23099       21.45562
H         56.05648       53.53952       24.31275
H         58.08536       55.56385       23.98319
H         57.62310       53.92895       22.28985
H         57.45611       55.58304       21.62828
N         55.34793       57.01789       24.80661
C         54.62621       58.28507       24.90488
C         55.00340       59.01628       26.18544
O         55.00829       58.36328       27.22019
C         53.11418       57.99668       24.95446
C         52.57246       57.40434       23.65042
C         51.08608       57.05509       23.81978
C         50.43617       56.50537       22.54197
N         50.32115       57.52618       21.49852
H         55.09683       56.30171       25.49817
H         54.83315       58.91591       24.03358
H         52.56426       58.94388       25.14968
H         52.90771       57.30256       25.79989
H         53.12642       56.47876       23.38897
H         52.71951       58.15333       22.84484
H         50.51339       57.94526       24.16062
H         51.01046       56.27376       24.60829
H         49.41255       56.15738       22.80473
H         51.00948       55.62997       22.16431
H         51.26200       57.83993       21.17343
H         49.80942       57.12004       20.68257
H         49.77751       58.34476       21.85822
N         55.26370       60.36300       26.27486
C         55.23839       61.38181       25.21902
C         53.86797       61.48222       24.54761
O         53.64991       60.84205       23.53032
C         56.42253       61.28190       24.23525
C         57.75352       61.45360       24.92227
O         57.81885       61.63175       26.25792
O         58.77995       61.44590       24.26277
H         55.46101       60.72349       27.22231
H         55.41952       62.36260       25.70591
H         56.32745       62.09923       23.48767
H         56.42201       60.31871       23.70327
N         52.87060       62.27656       25.03572
C         53.05197       63.17352       26.16695
C         51.79579       63.93861       26.54940
O         50.72951       63.65841       26.02114
H         51.96541       62.25843       24.54181
H         53.82014       63.92014       25.86800
H         53.39915       62.60557       27.05684
N         51.83140       64.97178       27.44187
C         53.05979       65.47709       28.04844
C         53.59269       66.64546       27.23890
O         52.93409       67.09425       26.30948
C         52.83250       65.83102       29.53652
C         51.79678       66.90678       29.74338
O         51.96394       68.02584       29.28477
O         50.68403       66.64135       30.45404
H         50.95925       65.50276       27.59339
H         53.84863       64.69790       28.02525
H         53.78565       66.16897       29.99688
H         52.50916       64.91227       30.07239
N         54.81440       67.16979       27.52619
C         55.39214       68.28426       26.79888
C         55.61649       67.96682       25.33816
O         55.10628       68.68869       24.49289
H         55.36233       66.76746       28.30182
H         56.37736       68.53427       27.24783
H         54.73292       69.17381       26.90428
N         56.40587       66.91810       24.96780
C         56.73919       66.63650       23.57184
C         55.48500       66.33212       22.77152
O         54.78328       65.37833       23.08166
C         57.75077       65.46954       23.44283
C         59.08316       65.79921       24.12872
O         58.00264       65.23134       22.08130
H         56.80499       66.32912       25.71344
H         57.23396       67.53884       23.14697
H         57.30150       64.55977       23.90610
H         58.42595       64.33564       22.01753
H         59.78477       64.94578       24.01569
H         59.54209       66.69853       23.66477
H         58.94805       65.98934       25.20964
N         55.15043       67.12644       21.71302
C         53.95293       66.93042       20.89978
C         53.96676       65.63258       20.08337
O         52.96217       65.36814       19.44068
C         53.66884       68.16999       19.98412
C         54.78307       68.40787       18.92699
C         53.41292       69.41802       20.85620
C         54.47192       69.55469       17.95980
H         55.75711       67.93495       21.51886
H         53.08465       66.85623       21.59341
H         52.71998       67.96944       19.43746
H         54.90097       67.48635       18.31790
H         55.75594       68.62562       19.41302
H         52.60015       69.21220       21.58511
H         54.32103       69.72111       21.41662
H         53.07511       70.27715       20.24303
H         53.51047       69.37168       17.43522
H         54.42425       70.52901       18.48785
H         55.28083       69.63052       17.20297
N         55.02811       64.76187       20.07057
C         54.97751       63.49461       19.33463
C         55.84216       62.40891       19.99820
O         56.64505       62.69773       20.86976
C         55.27289       63.76123       17.83446
C         55.12071       62.54266       16.92084
O         56.56963       64.28518       17.69745
H         55.86839       64.97904       20.61485
H         53.94138       63.10087       19.43705
H         54.51668       64.50815       17.49031
H         56.51694       65.04367       17.05811
H         54.10156       62.11107       17.01793
H         55.26693       62.85079       15.86364
H         55.88371       61.77140       17.15125
N         55.60729       61.09850       19.69562
C         56.20901       59.95876       20.39079
C         57.71667       59.83898       20.21934
O         58.19880       59.89382       19.09704
C         55.52824       58.62788       19.95744
C         55.71171       58.25884       18.47530
O         54.15588       58.70835       20.24808
H         54.87058       60.90141       19.00690
H         55.98010       60.05577       21.47162
H         55.98610       57.81355       20.56718
H         53.83680       57.78221       20.40966
H         55.28539       59.03203       17.80441
H         56.78038       58.11000       18.22386
H         55.19377       57.29872       18.26921
N         58.50688       59.55169       21.30175
C         59.91300       59.16351       21.19348
C         60.54068       58.99986       22.57637
O         61.48514       59.71636       22.87447
C         60.02452       57.83128       20.39835
C         61.45170       57.27355       20.24082
C         62.44816       58.22030       19.55273
C         62.00557       58.65099       18.14559
N         63.02624       59.48673       17.51549
H         58.07453       59.54463       22.23539
H         60.45851       59.97062       20.65687
H         59.59015       57.94831       19.38738
H         59.41503       57.05152       20.90338
H         61.38565       56.33244       19.65130
H         61.85682       57.00770       21.24103
H         63.41964       57.68472       19.47668
H         62.60691       59.12070       20.18262
H         61.05992       59.23157       18.20744
H         61.82774       57.75119       17.51598
H         62.68920       59.78630       16.57225
H         63.20431       60.33752       18.09750
H         63.91321       58.94422       17.40223
N         60.07701       58.06534       23.46012
C         60.63635       57.84903       24.79323
C         61.13975       56.42163       24.92096
O         60.36033       55.49261       24.76898
C         59.54766       58.14178       25.85132
C         59.95014       57.86930       27.31656
C         61.08143       58.72497       27.81991
O         62.19666       58.63587       27.33384
O         60.87905       59.55995       28.85670
H         59.28035       57.47777       23.17782
H         61.48313       58.54115       24.97036
H         58.66228       57.50762       25.63147
H         59.23017       59.19994       25.75775
H         60.21764       56.79939       27.44826
H         59.05720       58.06899       27.94832
N         62.43943       56.16968       25.23650
C         62.93346       54.82164       25.41993
H         64.01114       54.84453       25.68675
H         62.37712       54.32441       26.24417
H         62.80664       54.23724       24.48428
H         63.09683       56.95228       25.36957
Ca        59.74627       61.88207       27.39275
O         62.07498       61.27179       25.64258
H         61.20615       60.95697       25.28867
H         62.59791       61.50836       24.83687
O         62.43598       62.81112       28.50131
H         63.38369       63.07533       28.39200
H         62.38475       62.43518       29.41589
O         60.04133       64.80037       27.32970
H         60.76803       64.83038       26.65743
H         59.89631       65.74545       27.58539

Ca 1.0



