%chk=apoCaM-CA-Ng.loop2.water5.frame1484.chk
%nprocshared=20
%mem=10GB
%nosave
#b3lyp/svp scf=(tight,noincore,xqc) Test 
#IOP(5/87=12) Density=Current Pop=(MK,readradii) iop(6/33=2) iop(6/42=6)

apoCaM-CA-Ng.loop2.water5.frame1484 

   -2  1 
C         14.02686       79.57739       59.59027
C         14.86829       80.80478       59.37922
O         15.15871       81.48370       60.35323
H         13.07975       79.65789       59.01890
H         14.59193       78.67896       59.26209
H         13.77984       79.45533       60.66668
N         15.34574       81.16824       58.15554
C         15.09828       80.44852       56.91185
C         14.49580       81.36324       55.84912
O         13.44007       81.01103       55.33944
C         16.36568       79.68439       56.46257
C         17.66792       80.43136       56.55351
O         18.63213       79.97885       57.37752
O         17.87847       81.42261       55.88394
H         15.96111       81.99483       58.11225
H         14.35022       79.63880       57.05532
H         16.21526       79.27282       55.44039
H         16.47082       78.81647       57.15077
N         15.07231       82.54399       55.46884
C         14.50219       83.40453       54.42873
C         15.44690       83.62916       53.25347
O         14.99010       84.16393       52.25221
C         14.09255       84.74883       55.03393
H         15.92180       82.85932       55.95107
H         13.58849       82.93292       54.00625
H         13.61919       85.39602       54.26425
H         13.35950       84.58749       55.85233
H         14.97973       85.27523       55.44583
N         16.76592       83.27968       53.29666
C         17.69012       83.45925       52.18042
C         18.37377       82.15731       51.75708
O         18.95703       82.15433       50.68590
C         18.72793       84.54613       52.53052
C         19.43501       84.27949       53.83010
O         19.35357       85.16868       54.83792
O         20.06620       83.25216       53.98782
H         17.15153       82.91240       54.16828
H         17.13467       83.81253       51.28436
H         18.20281       85.52054       52.62598
H         19.47286       84.63760       51.71070
N         18.34457       81.02322       52.51783
C         18.91060       79.73487       52.13665
C         20.42627       79.62859       51.98914
O         20.86463       78.50155       51.80485
H         17.84040       81.02886       53.41075
H         18.43381       79.38755       51.19446
H         18.63121       79.00809       52.93224
N         21.29048       80.69147       52.00207
C         22.73473       80.53190       51.78986
C         23.58802       81.26148       52.83211
O         24.80501       81.21083       52.70422
C         23.13948       81.03545       50.38067
C         22.52910       80.23742       49.24937
N         21.21556       80.33321       48.94862
O         23.24535       79.51429       48.57287
H         20.92263       81.64628       52.08361
H         23.02570       79.45928       51.83659
H         24.24225       80.91508       50.29086
H         22.90899       82.11501       50.25183
H         20.60583       80.96785       49.47130
H         20.81270       79.79489       48.16759
N         23.06115       81.97290       53.86850
C         23.91019       82.75471       54.75615
C         23.07829       83.47716       55.83436
O         22.48782       82.51864       56.65945
H         22.04798       81.98301       54.01477
H         24.43520       83.50430       54.12898
H         24.64919       82.08397       55.24441
N         23.75463       84.47603       56.69295
C         25.06211       85.03002       56.27545
C         26.12088       83.95511       56.43395
O         26.79193       83.63970       55.46069
C         25.42562       86.27652       57.14062
C         26.78061       86.89752       56.75925
O         24.42596       87.26161       57.04424
H         23.05743       85.24551       56.81430
H         25.00990       85.37990       55.21976
H         25.48669       85.96990       58.20689
H         24.38823       87.56282       56.09825
H         26.99370       87.76654       57.41807
H         27.60400       86.16895       56.87935
H         26.77114       87.24483       55.70444
N         26.29630       83.33078       57.63710
C         27.23535       82.22881       57.84704
C         26.50157       80.96824       58.31154
O         25.39449       81.08662       58.81887
C         28.35034       82.61361       58.86641
C         27.75221       83.10174       60.21531
C         29.28814       83.65870       58.24325
C         28.79568       83.34584       61.30378
H         25.70862       83.62988       58.42908
H         27.70448       81.98954       56.87274
H         28.96497       81.70878       59.06406
H         27.05290       82.33156       60.60443
H         27.18535       84.04586       60.06758
H         29.70231       83.27353       57.28656
H         28.74816       84.60373       58.04702
H         30.15178       83.86950       58.90435
H         28.28039       83.65752       62.23717
H         29.36481       82.41443       61.50512
H         29.49451       84.15827       61.02131
N         27.00794       79.70523       58.14006
C         28.20304       79.40297       57.36099
C         28.99939       78.24022       57.93436
O         28.47298       77.14038       58.02588
C         27.76020       79.06941       55.92103
C         28.93160       78.81335       55.01302
O         29.04899       77.73650       54.45060
O         29.85355       79.77426       54.81149
H         26.40663       78.91205       58.41458
H         28.87270       80.27910       57.29926
H         27.18583       79.92581       55.50532
H         27.08718       78.18291       55.93266
N         30.32713       78.40437       58.21173
C         31.24930       77.29335       58.42479
C         32.02507       77.44200       59.72976
O         32.50230       78.53553       59.99132
C         32.22717       77.29145       57.22739
C         33.11928       76.07647       57.20690
C         32.71636       74.92658       56.50576
C         34.34436       76.06834       57.89545
C         33.52277       73.78584       56.49887
C         35.15047       74.92516       57.88195
C         34.73894       73.78469       57.18616
H         30.73816       79.34638       58.12608
H         30.70858       76.32912       58.38906
H         32.83596       78.22203       57.18840
H         31.62136       77.28591       56.29373
H         31.77229       74.91026       55.97504
H         34.67270       76.94294       58.44278
H         33.20208       72.90191       55.96291
H         36.09271       74.92122       58.41413
H         35.36111       72.89923       57.18013
N         32.31786       76.37036       60.54066
C         31.94149       74.99369       60.28545
C         30.47536       74.73091       60.59492
O         29.77763       74.27801       59.69903
C         32.96634       74.18781       61.09875
C         33.27422       75.07731       62.28654
C         33.23768       76.47590       61.66328
H         32.12053       74.70106       59.23110
H         32.69680       73.13241       61.31592
H         33.90900       74.17526       60.50342
H         32.46600       74.96685       63.02294
H         34.21307       74.84164       62.83111
H         32.92641       77.23073       62.41692
H         34.23731       76.73800       61.25285
N         29.93889       74.95442       61.82868
C         28.56157       74.63894       62.16712
C         28.57269       73.39680       63.04575
O         29.14669       73.45186       64.12427
C         27.91024       75.81711       62.91972
C         27.89560       77.11317       62.09862
C         27.28347       78.23000       62.89607
O         27.84538       78.61750       64.05809
O         26.27995       78.79613       62.49389
H         30.52030       75.31863       62.58538
H         27.97143       74.45660       61.24811
H         28.47357       75.99875       63.86295
H         26.86536       75.54234       63.18572
H         27.31730       76.95151       61.16290
H         28.93212       77.40879       61.82808
N         28.00082       72.21666       62.66990
C         27.32657       72.01008       61.40663
H         26.44988       72.68652       61.32557
H         28.02849       72.19145       60.56458
H         26.96807       70.96138       61.33742
H         28.06356       71.41246       63.31353
Ca        20.30861       83.10921       56.92598
O         17.48297       84.43738       57.39741
H         16.70880       84.48828       58.01224
H         17.20357       84.95628       56.60230
O         18.55381       82.18279       59.37388
H         18.68348       81.46188       60.03981
H         17.98305       82.84802       59.83356
O         21.16824       79.98788       55.80479
H         22.12288       79.88784       56.04758
H         21.07414       79.48888       54.95538
O         21.77451       81.63715       59.52264
H         21.95477       80.77789       59.06454
H         22.60665       82.16099       59.40518
O         19.95541       85.61077       58.72950
H         19.88507       84.89268       59.40774
H         20.88990       85.55659       58.40676

Ca 1.0



