%chk=apoCaM-CA-Ng.loop4.water4.frame407.chk
%nprocshared=20
%mem=10GB
%nosave
#b3lyp/svp scf=(tight,noincore,xqc) Test 
#IOP(5/87=12) Density=Current Pop=(MK,readradii) iop(6/33=2) iop(6/42=6)

apoCaM-CA-Ng.loop4.water4.frame407 

   -3  1 
C        114.31229       85.21268       -0.94471
C        115.80576       85.13914       -1.00529
O        116.32954       84.65930       -1.99853
H        113.94244       84.64289       -0.06864
H        114.00115       86.27496       -0.85766
H        113.86334       84.78898       -1.86971
N        116.56204       85.64453        0.01267
C        118.01948       85.69323       -0.01011
C        118.51147       86.42066       -1.24246
O        119.27280       85.86969       -2.01310
C        118.69242       84.33111        0.33617
C        118.08314       83.03663       -0.16445
O        118.06290       82.64917       -1.45551
O        117.62266       82.26421        0.66225
H        116.07942       86.08926        0.80824
H        118.36055       86.35550        0.81932
H        118.61641       84.25978        1.44605
H        119.78156       84.37206        0.11614
N        118.12554       87.71932       -1.42366
C        118.54991       88.64594       -2.47370
C        120.05068       88.89843       -2.37361
O        120.43316       89.93485       -1.84828
C        118.04909       88.24291       -3.89342
C        118.35757       89.32619       -4.96540
C        116.54540       87.91189       -3.87893
C        117.65883       90.67828       -4.75118
H        117.48830       88.11652       -0.71498
H        118.04809       89.60470       -2.21746
H        118.56662       87.31384       -4.20822
H        118.04211       88.93745       -5.95740
H        119.45355       89.50026       -5.01286
H        115.94074       88.76883       -3.51861
H        116.20433       87.62922       -4.89618
H        116.34477       87.05097       -3.21104
H        116.55505       90.56808       -4.75075
H        117.97775       91.15871       -3.80475
H        117.92291       91.36572       -5.58169
N        120.95929       87.98803       -2.82585
C        122.38631       88.07075       -2.56159
C        123.13217       88.79575       -3.68844
O        123.76018       89.79636       -3.37196
C        122.91016       86.66313       -2.18051
C        124.36022       86.66392       -1.79366
O        125.15832       85.97037       -2.40372
O        124.78132       87.40299       -0.74980
H        120.62728       87.15347       -3.31886
H        122.54083       88.67705       -1.63854
H        122.74367       85.93388       -2.99199
H        122.32555       86.29000       -1.31040
N        123.14146       88.42677       -5.00741
C        122.43970       87.27247       -5.54053
C        122.63328       87.04713       -7.03389
O        123.25077       87.87966       -7.68232
H        123.69570       89.01407       -5.64865
H        121.35695       87.39813       -5.36315
H        122.84624       86.40994       -5.02701
N        122.13425       85.95188       -7.69636
C        121.40820       84.81585       -7.11746
C        120.13918       85.29970       -6.43615
O        120.05625       85.22022       -5.22054
C        122.30828       83.93691       -6.20977
C        123.58741       83.55834       -6.90223
O        124.77134       83.91212       -6.36585
O        123.56214       82.93618       -7.95205
H        122.28873       85.91247       -8.71625
H        121.12240       84.11983       -7.93486
H        121.75821       83.01087       -5.94000
H        122.55843       84.41696       -5.25535
N        119.10989       85.87383       -7.12192
C        118.98559       85.90920       -8.56960
C        119.14490       87.29312       -9.11771
O        119.48287       88.21090       -8.38179
H        118.33084       86.27968       -6.58107
H        117.98813       85.50143       -8.83984
H        119.73955       85.28569       -9.08279
N        118.92511       87.50221      -10.44552
C        119.15734       88.78265      -11.09570
C        117.88783       89.61110      -11.21121
O        118.01247       90.77835      -11.55483
C        120.00839       88.60513      -12.38173
C        119.42659       87.70228      -13.48930
C        118.24328       88.30350      -14.18649
N        118.38319       89.44475      -14.89841
O        117.16166       87.73922      -14.14504
H        118.56442       86.71568      -11.00408
H        119.79071       89.40404      -10.42341
H        120.96348       88.13172      -12.06400
H        120.26707       89.60043      -12.80297
H        119.17634       86.70145      -13.08394
H        120.20783       87.53956      -14.26341
H        119.29579       89.91653      -14.96745
H        117.58824       89.84733      -15.40718
N        116.65924       89.13259      -10.83195
C        115.51176       90.01796      -10.60525
C        114.36712       89.81764      -11.57769
O        113.41414       90.58144      -11.48299
C        114.97228       89.85324       -9.14734
C        116.07763       90.03269       -8.09831
C        114.26473       88.50197       -8.92200
H        116.55226       88.13577      -10.59993
H        115.83333       91.07553      -10.72589
H        114.21221       90.64747       -8.97192
H        116.56436       91.02308       -8.21039
H        115.64265       89.96959       -7.07731
H        116.84515       89.23586       -8.19341
H        114.95660       87.64948       -9.06627
H        113.85650       88.46334       -7.89141
H        113.40569       88.37692       -9.61460
N        114.34889       88.81876      -12.50392
C        113.20159       88.59062      -13.37330
C        112.58259       87.21712      -13.16271
O        111.59542       86.95250      -13.83378
C        113.61075       88.75442      -14.85186
C        114.11604       90.13863      -15.17115
N        113.33591       91.22956      -14.99205
O        115.24013       90.27536      -15.62195
H        115.15624       88.18522      -12.58934
H        112.39053       89.32039      -13.16289
H        112.73135       88.56544      -15.50487
H        114.39275       88.00377      -15.10075
H        112.37710       91.14391      -14.62748
H        113.69391       92.16782      -15.22578
N        113.06659       86.29133      -12.27045
C        112.48579       84.94684      -12.18450
C        113.02241       84.10359      -11.03176
O        114.11786       84.33493      -10.54096
C        112.71112       84.18978      -13.52681
C        114.16916       84.23955      -13.95696
C        114.54627       85.04315      -15.04852
C        115.16675       83.52816      -13.26722
C        115.88926       85.15434      -15.41974
C        116.50827       83.63670      -13.64160
C        116.87645       84.45579      -14.71160
O        118.17773       84.56697      -15.04609
H        113.85853       86.53259      -11.65968
H        111.39669       85.06436      -11.98787
H        112.09978       84.68419      -14.30694
H        112.33900       83.14464      -13.48513
H        113.80388       85.60630      -15.59985
H        114.91825       82.89032      -12.43623
H        116.16185       85.79320      -16.25027
H        117.26324       83.08919      -13.09132
H        118.47666       85.13975      -15.76661
N        112.25737       83.05837      -10.58620
C        112.63814       82.03608       -9.60791
C        112.96058       82.53447       -8.20768
O        113.19085       81.68907       -7.35233
C        113.79323       81.16924      -10.13717
C        113.42172       80.47363      -11.45368
C        114.55186       79.61421      -11.93472
O        115.63339       80.11299      -12.20275
O        114.37597       78.28709      -12.07817
H        111.32625       82.93825      -11.01443
H        111.75866       81.36187       -9.48368
H        114.02072       80.37526       -9.39050
H        114.70225       81.79327      -10.26509
H        113.18351       81.22131      -12.23699
H        112.52092       79.84081      -11.29204
N        112.95053       83.85014       -7.86290
C        113.12952       84.29047       -6.48898
C        111.75360       84.41293       -5.88558
O        111.48580       83.78028       -4.87312
C        113.92459       85.61014       -6.42407
C        115.30165       85.51996       -7.10618
C        116.16900       84.45181       -6.50781
O        116.56745       83.52971       -7.20108
O        116.51679       84.50963       -5.20895
H        112.67143       84.55838       -8.55190
H        113.70001       83.53737       -5.89794
H        114.06183       85.89736       -5.35758
H        113.34559       86.41427       -6.92127
H        115.82197       86.49635       -7.00989
H        115.16293       85.31916       -8.18991
N        110.79310       85.14023       -6.51927
C        109.42401       85.16823       -6.06318
H        108.80841       85.76725       -6.76729
H        109.01768       84.13303       -6.04170
H        109.36798       85.61556       -5.05079
H        111.02291       85.64709       -7.38709
Ca       118.74301       83.61216       -3.36617
O        121.56491       83.31327       -2.80041
H        122.53342       83.31073       -3.00241
H        121.38349       82.41179       -2.43370
O        119.20293       82.32740       -6.18954
H        118.31991       81.98517       -5.90267
H        119.41440       81.82251       -7.01402
O        115.94521       81.76144       -3.53391
H        115.16102       82.11716       -4.02223
H        115.73617       81.92557       -2.58016
O        119.56362       80.52987       -3.75504
H        120.40058       80.58225       -4.28186
H        119.80626       80.00078       -2.95448

Ca 1.0



