%chk=apoCaM-CA-Ng.loop2.water4.frame1055.chk
%nprocshared=20
%mem=10GB
%nosave
#b3lyp/svp scf=(tight,noincore,xqc) Test 
#IOP(5/87=12) Density=Current Pop=(MK,readradii) iop(6/33=2) iop(6/42=6)

apoCaM-CA-Ng.loop2.water4.frame1055 

   -2  1 
C          7.38076       77.24538       68.21900
C          7.10787       77.78343       66.83980
O          7.15708       77.00959       65.89515
H          8.25961       77.75933       68.66185
H          6.49024       77.39945       68.86470
H          7.59752       76.15668       68.18150
N          6.79955       79.09235       66.60814
C          6.71091       80.11825       67.64237
C          7.75741       81.19294       67.37229
O          8.89880       80.81856       67.14075
C          5.23875       80.58670       67.75700
C          4.63685       81.06939       66.45734
O          3.59864       80.40576       65.91396
O          5.06792       82.05992       65.89399
H          6.61382       79.37754       65.63429
H          6.98105       79.70242       68.63272
H          5.13155       81.36236       68.54357
H          4.64334       79.70820       68.08825
N          7.47409       82.53081       67.40202
C          8.43884       83.57810       67.09639
C          8.91878       83.42997       65.66880
O         10.11493       83.31542       65.43414
C          9.58624       83.60908       68.12184
H          6.52842       82.85224       67.64070
H          7.92185       84.56119       67.17025
H         10.19122       82.68013       68.10083
H         10.26294       84.46368       67.90395
H          9.17568       83.74433       69.14434
N          8.01089       83.44014       64.65046
C          8.39915       83.34395       63.25319
C          7.48375       84.19939       62.32523
O          6.09894       84.21182       62.57300
C          8.91441       81.90974       62.84644
C          8.16211       80.58210       62.96428
O          8.80633       79.55968       62.78986
O          6.85306       80.44344       63.23600
H          7.01533       83.57073       64.88125
H          9.32157       83.95710       63.13943
H          9.79647       81.74546       63.50075
H          9.31093       81.96550       61.81047
N          7.85572       84.06296       60.91312
C          6.89535       84.59112       59.93410
C          6.38874       83.48594       59.03686
O          5.61637       83.79390       58.14047
H          8.78115       84.53415       60.78197
H          7.39781       85.34959       59.29389
H          6.03108       85.10604       60.40769
N          6.75344       82.17743       59.21713
C          6.25213       81.08976       58.38539
C          5.30341       80.22278       59.19083
O          5.09352       80.48201       60.36925
C          7.41518       80.26966       57.78282
C          8.28457       81.09095       56.86068
N          9.62745       81.13781       57.02680
O          7.77227       81.69311       55.92857
H          7.37396       81.91615       59.99742
H          5.64297       81.49171       57.54712
H          6.99590       79.44642       57.16949
H          8.02437       79.81207       58.59343
H         10.08836       80.61131       57.78282
H         10.21462       81.67974       56.37475
N          4.62400       79.20997       58.58560
C          3.55909       78.50030       59.26777
C          2.91858       77.46842       58.36302
O          1.80111       77.70596       57.92845
H          4.81161       78.99773       57.59416
H          2.79019       79.25513       59.54701
H          3.91046       78.03227       60.21056
N          3.50031       76.27001       58.05756
C          4.77037       75.80094       58.60267
C          5.71198       75.30267       57.52327
O          5.27610       74.85980       56.46922
C          4.51898       74.64221       59.59599
C          3.74192       75.11241       60.82888
O          3.81129       73.61262       58.95051
H          2.96099       75.61528       57.46918
H          5.29353       76.61072       59.15105
H          5.50855       74.26141       59.94412
H          3.96600       72.78145       59.46989
H          4.31861       75.89809       61.36022
H          2.74740       75.51648       60.54635
H          3.59370       74.26173       61.52655
N          7.04739       75.28293       57.78591
C          8.04550       74.68541       56.90858
C          7.89260       73.16152       56.96324
O          7.85923       72.64938       58.07382
C          9.48158       75.09178       57.37783
C          9.70112       76.63278       57.39283
C         10.57294       74.41404       56.52869
C          9.47074       77.33807       56.05158
H          7.36332       75.69045       58.67898
H          7.92383       75.10000       55.89888
H          9.63127       74.73469       58.42161
H         10.74327       76.83594       57.72349
H          9.03076       77.10699       58.13867
H         10.48061       74.67824       55.45533
H         11.58036       74.70545       56.89055
H         10.51145       73.31395       56.63369
H          9.70356       78.41657       56.16178
H         10.12207       76.92409       55.25863
H          8.41107       77.25953       55.73441
N          7.87378       72.32884       55.87527
C          8.01316       72.71625       54.47481
C          9.42805       72.39426       54.00748
O         10.16902       71.74784       54.73694
C          6.91736       71.99776       53.65605
C          6.90820       72.35785       52.19813
O          7.07741       71.49456       51.35155
O          6.69398       73.63160       51.81690
H          7.85045       71.31375       56.06890
H          7.88541       73.80018       54.34584
H          5.92310       72.26557       54.07480
H          7.04925       70.89761       53.76457
N          9.90217       72.90294       52.83416
C         11.28521       72.74270       52.38910
C         11.46952       73.51450       51.08430
O         10.74563       73.18586       50.15135
C         11.61329       71.24438       52.12666
C         13.09982       70.99451       52.05411
C         13.73046       70.65914       50.84482
C         13.86615       71.06338       53.23222
C         15.10767       70.40568       50.81745
C         15.23681       70.79557       53.20266
C         15.85841       70.46946       51.99558
H          9.26938       73.48929       52.27129
H         11.94538       73.13245       53.19299
H         11.09425       70.91072       51.20097
H         11.23871       70.57856       52.92932
H         13.16152       70.59917       49.92600
H         13.39590       71.30370       54.17822
H         15.59400       70.15340       49.88417
H         15.81509       70.83562       54.11721
H         16.92090       70.26267       51.97504
N         12.38291       74.51873       50.88292
C         13.40160       74.99085       51.81857
C         12.87817       75.78023       53.00923
O         11.67513       75.93569       53.15977
C         14.28114       75.90864       50.95134
C         14.10950       75.32260       49.56714
C         12.61190       75.07757       49.56548
H         13.99847       74.11043       52.14513
H         13.81834       76.91438       50.89255
H         15.32698       76.02718       51.30496
H         14.46231       75.97723       48.74196
H         14.63772       74.34396       49.52131
H         12.06938       76.04867       49.49670
H         12.30543       74.42057       48.72323
N         13.76651       76.31591       53.89973
C         13.37658       77.06015       55.09547
C         14.55369       77.15049       56.07401
O         14.94989       78.24592       56.44383
C         12.75341       78.45262       54.75676
C         13.65668       79.47683       54.02791
C         13.93830       79.11420       52.60458
O         15.20668       78.93477       52.18803
O         13.01911       79.03121       51.80571
H         14.76981       76.12578       53.75008
H         12.59931       76.48054       55.63472
H         12.45314       78.91256       55.72407
H         11.82293       78.32403       54.16546
H         14.61101       79.63211       54.56609
H         13.13411       80.45780       54.01182
N         15.17642       76.04504       56.57993
C         14.81458       74.66841       56.30217
H         13.93583       74.56365       55.64068
H         15.67572       74.15265       55.82847
H         14.57193       74.15844       57.25712
H         15.96871       76.18782       57.22581
Ca         5.53331       82.15153       63.06093
O          2.93716       83.77950       64.04467
H          3.12131       84.65744       63.62555
H          1.99848       83.58095       63.80061
O          1.77681       80.88893       62.78912
H          1.27620       80.15984       63.23407
H          1.07587       81.50896       62.46495
O          3.31140       82.88983       60.89453
H          2.70113       83.65750       61.02927
H          3.27056       82.70652       59.92247
O          4.36964       78.49986       63.06968
H          5.05565       77.83371       62.81283
H          4.07631       78.21768       63.97222

Ca 1.0



