%chk=apoCaM-CA-Ng.loop3.water5.frame440.chk
%nprocshared=20
%mem=10GB
%nosave
#b3lyp/svp scf=(tight,noincore,xqc) Test 
#IOP(5/87=12) Density=Current Pop=(MK,readradii) iop(6/33=2) iop(6/42=6)

apoCaM-CA-Ng.loop3.water5.frame440 

   0  1 
C        100.46276       58.95843       89.20595
C        100.02048       57.55695       88.89934
O         98.89935       57.37462       88.44924
H        101.35949       59.20552       88.59865
H         99.66148       59.69001       88.96303
H        100.71568       59.04803       90.28254
N        100.87551       56.51144       89.10568
C        100.57797       55.11331       88.78985
C         99.50488       54.49835       89.70244
O         99.06625       53.38800       89.43998
C        100.28713       54.97470       87.27534
C        100.28853       53.54324       86.81790
O         99.30324       53.06804       86.27731
O        101.38952       52.78424       86.98258
H        101.81605       56.72265       89.47353
H        101.50386       54.52800       88.98420
H        101.09652       55.49114       86.71353
H         99.32279       55.45514       87.00941
N         99.11413       55.12332       90.84964
C         98.16514       54.58426       91.82431
C         96.99479       55.52552       92.00991
O         96.22672       55.31565       92.94085
C         98.90599       54.39636       93.17370
C         99.80003       53.14491       93.18509
C         98.96575       51.86567       93.42358
C         99.78191       50.56507       93.35940
N        100.91777       50.56005       94.28210
H         99.53781       56.03111       91.09075
H         97.72435       53.61681       91.50826
H         98.20405       54.29696       94.03159
H         99.51048       55.31002       93.36445
H        100.50051       53.24093       94.04092
H        100.39337       53.08834       92.24760
H         98.15295       51.77388       92.67460
H         98.48986       51.94153       94.42772
H        100.14831       50.40602       92.32229
H         99.09960       49.72255       93.61528
H        101.36130       49.61348       94.26553
H        101.63486       51.25540       93.97449
H        100.60253       50.77250       95.25608
N         96.75474       56.55916       91.15292
C         95.65636       57.48836       91.35931
C         94.31974       56.75592       91.40950
O         94.21445       55.63485       90.92912
C         95.65542       58.55051       90.24928
C         94.69235       59.66116       90.53970
O         94.87374       60.38885       91.50240
O         93.62188       59.85887       89.75517
H         97.36922       56.70186       90.34099
H         95.84028       57.97809       92.34134
H         95.41178       58.03289       89.30100
H         96.66446       59.00380       90.13675
N         93.26679       57.32902       92.04851
C         91.99259       56.67142       92.25740
C         91.30235       56.30460       90.97213
O         90.94334       55.14405       90.82319
H         93.38824       58.26219       92.46493
H         91.32924       57.35699       92.82593
H         92.14360       55.75766       92.87599
N         91.06870       57.23421       90.00017
C         90.30320       56.92283       88.79465
C         91.16591       56.81356       87.54288
O         90.62793       56.46916       86.50142
C         89.10105       57.88146       88.65982
C         89.43414       59.29215       88.24357
N         88.85122       59.82429       87.14481
O         90.19655       59.97186       88.91117
H         91.43884       58.18748       90.13186
H         89.85424       55.91298       88.90651
H         88.56851       57.91603       89.63540
H         88.39688       57.45353       87.91569
H         88.18843       59.28034       86.57448
H         89.03952       60.79418       86.87087
N         92.51306       57.03060       87.57449
C         93.40193       56.73928       86.45699
C         93.93363       57.99649       85.81973
O         93.86250       58.12462       84.60470
H         92.95689       57.34997       88.44650
H         92.90668       56.11771       85.68016
H         94.25106       56.13912       86.85244
N         94.45898       58.98242       86.58815
C         95.00601       60.22827       86.08296
C         94.05342       61.34833       86.41878
O         93.45770       61.33354       87.48808
C         96.38982       60.46344       86.71076
C         97.00286       61.75468       86.22935
C         97.28186       61.94432       84.86521
C         97.28917       62.78537       87.13900
C         97.83004       63.14806       84.41810
C         97.84018       63.98807       86.68963
C         98.11072       64.17368       85.32599
O         98.63824       65.32994       84.87772
H         94.42464       58.86896       87.60449
H         95.11237       60.18654       84.97683
H         97.06524       59.62043       86.44957
H         96.28044       60.47859       87.81853
H         97.07028       61.16334       84.14593
H         97.08140       62.66181       88.19467
H         98.03443       63.28302       83.36364
H         98.05314       64.77500       87.40164
H         98.84709       66.06383       85.47273
N         93.82799       62.35090       85.52930
C         92.75590       63.30897       85.72811
C         91.47287       62.55287       85.47906
O         90.65050       62.46626       86.37177
C         92.90102       64.54974       84.80239
C         94.26609       65.26847       85.00074
C         91.73276       65.53414       85.01538
C         94.54247       65.77415       86.42268
H         94.37024       62.37750       84.65120
H         92.77378       63.68371       86.77386
H         92.86407       64.22028       83.74059
H         94.31847       66.13317       84.30443
H         95.09009       64.57869       84.72355
H         91.68628       65.88879       86.06589
H         91.84208       66.41166       84.34335
H         90.76170       65.05204       84.77973
H         93.77809       66.50847       86.74750
H         94.58189       64.93547       87.14680
H         95.53216       66.27609       86.44594
N         91.28974       61.91663       84.28624
C         90.13166       61.09264       83.96568
C         88.85081       61.89768       83.97556
O         87.84946       61.39368       84.46603
C         90.32341       60.39907       82.60652
O         90.47252       61.34278       81.58020
H         92.03719       61.99431       83.58022
H         90.05048       60.26883       84.70829
H         89.45029       59.74512       82.38788
H         91.23408       59.75751       82.67977
H         90.98120       60.89178       80.85663
N         88.81279       63.16932       83.47536
C         87.60821       63.99119       83.42266
C         86.97973       64.26260       84.79016
O         85.89924       64.83498       84.81226
C         86.59407       63.36087       82.45635
H         89.68047       63.57991       83.09827
H         87.87137       64.98034       82.98572
H         87.06561       63.23078       81.45838
H         86.23468       62.37577       82.81487
H         85.71646       64.03062       82.33016
N         87.59814       63.93412       85.96700
C         86.99552       64.16982       87.27459
C         87.74312       65.24442       88.03209
O         88.81230       65.66343       87.61028
C         86.96882       62.86721       88.08069
H         88.54071       63.53448       85.95173
H         85.95228       64.53104       87.15162
H         86.48873       63.02269       89.06993
H         86.40009       62.08769       87.53139
H         88.00430       62.50045       88.25041
N         87.16209       65.80345       89.13537
C         87.73120       66.89331       89.92291
C         87.94994       68.17030       89.09929
O         88.48356       69.12871       89.63852
C         88.99750       66.38865       90.66691
C         89.57876       67.31827       91.75963
C         88.60756       67.64865       92.86678
O         88.84890       67.22372       94.12157
O         87.62426       68.33882       92.65057
H         86.23790       65.45139       89.42811
H         86.98385       67.13864       90.70129
H         89.80087       66.16584       89.93530
H         88.73032       65.43569       91.17547
H         89.97349       68.25925       91.32922
H         90.44393       66.78618       92.21126
N         87.52652       68.28921       87.80509
C         87.75197       69.48767       87.02773
H         88.84281       69.66212       86.91229
H         87.30452       69.37121       86.01700
H         87.28214       70.36100       87.52638
H         87.01140       67.53117       87.34050
Ca        92.23124       61.55552       90.25437
O         92.08502       60.45568       93.01252
H         92.13034       61.31099       93.50842
H         91.12423       60.21746       93.00651
O         94.49183       63.59584       89.64762
H         94.19311       64.50284       89.90953
H         95.34197       63.46317       90.13703
O         91.90232       64.04699       91.95411
H         90.99189       64.15400       92.32777
H         92.43432       64.76577       92.37819
O         89.35307       62.00909       91.02725
H         89.24114       61.96127       92.00972
H         88.94379       62.87282       90.76990
O         91.36482       63.99735       89.03115
H         90.49662       64.00675       88.55887
H         91.73168       64.90821       88.90935

Ca 1.0



