%chk=apoCaM-CA-Ng.loop2.water2.frame831.chk
%nprocshared=20
%mem=10GB
%nosave
#b3lyp/svp scf=(tight,noincore,xqc) Test 
#IOP(5/87=12) Density=Current Pop=(MK,readradii) iop(6/33=2) iop(6/42=6)

apoCaM-CA-Ng.loop2.water2.frame831 

   -2  1 
C         54.57812       63.62141       93.94561
C         53.76322       62.54641       93.28934
O         53.40477       61.57796       93.94481
H         55.55240       63.72561       93.42400
H         54.03043       64.58601       93.88899
H         54.76568       63.38108       95.01378
N         53.42681       62.65972       91.97357
C         52.63500       61.66018       91.25872
C         51.17239       61.61059       91.72922
O         50.43242       60.77810       91.22368
C         52.70727       61.94963       89.74161
C         52.11299       60.84547       88.91021
O         51.17792       61.07413       88.16015
O         52.62041       59.59933       88.98154
H         53.78760       63.47615       91.45456
H         53.11304       60.66874       91.42867
H         53.77396       62.04020       89.44112
H         52.20202       62.91679       89.52455
N         50.68742       62.44520       92.69830
C         49.31389       62.41663       93.19151
C         48.73812       63.83458       93.23529
O         49.48346       64.72934       93.61116
C         49.32303       61.85966       94.61610
H         51.31874       63.11535       93.15342
H         48.70448       61.71536       92.59657
H         49.74182       60.83074       94.61569
H         49.93449       62.49643       95.28979
H         48.28908       61.80736       95.01468
N         47.42630       64.15737       93.01384
C         46.35395       63.24796       92.62285
C         45.56496       63.82144       91.45564
O         45.62113       65.01968       91.21317
C         45.46208       62.89454       93.83212
C         44.80880       64.06798       94.50671
O         43.59725       64.09347       94.62639
O         45.54904       65.04965       95.05768
H         47.16321       65.14067       93.18400
H         46.76838       62.29030       92.27208
H         46.08634       62.38875       94.59618
H         44.68060       62.17249       93.50802
N         44.87567       62.98704       90.62844
C         44.21826       63.42953       89.41039
C         42.80802       62.90064       89.32024
O         42.57673       62.03616       88.48718
H         44.89720       61.97283       90.81581
H         44.79618       63.00106       88.56262
H         44.22641       64.53367       89.28010
N         41.77631       63.36261       90.07869
C         41.85029       64.47882       91.00549
C         41.50003       65.76032       90.27531
O         40.45912       65.82418       89.63625
C         40.90568       64.21661       92.19389
C         40.80151       65.42450       93.12808
N         40.06312       65.06466       94.33805
O         42.08290       65.89020       93.44218
H         40.83857       62.97801       89.87926
H         42.87160       64.57390       91.42760
H         41.28875       63.33492       92.75518
H         39.87951       63.98779       91.83408
H         39.15630       64.61826       94.07543
H         39.80977       65.94216       94.84380
N         42.33027       66.83953       90.36326
C         42.10581       68.09392       89.66538
C         41.69822       69.22519       90.58797
O         41.56835       70.33691       90.09582
H         43.16413       66.78081       90.96669
H         41.30457       67.99398       88.90310
H         43.04376       68.35854       89.13102
N         41.41444       69.02212       91.90878
C         40.91406       70.06838       92.79782
C         41.82267       70.24025       94.00583
O         42.80453       69.52356       94.14109
C         39.46737       69.71752       93.24209
C         38.50517       69.68481       92.05232
O         39.43195       68.46920       93.88309
H         41.49690       68.07662       92.30242
H         40.88257       71.05082       92.27704
H         39.06823       70.50082       93.92593
H         39.76465       68.61078       94.80609
H         38.80257       68.90552       91.31950
H         37.47729       69.45750       92.40798
H         38.48840       70.67328       91.54524
N         41.53125       71.19415       94.93524
C         42.31157       71.43874       96.14244
C         41.41951       71.15176       97.33534
O         40.36013       71.75821       97.43084
C         42.81568       72.91323       96.14406
C         43.55540       73.31382       97.44948
C         43.69226       73.19205       94.90874
C         44.80925       72.49607       97.75469
H         40.70083       71.78804       94.78610
H         43.19352       70.76451       96.18050
H         41.93024       73.58448       96.07097
H         42.86107       73.21270       98.31137
H         43.84326       74.38575       97.38525
H         44.02598       74.25153       94.90561
H         44.58359       72.53164       94.88784
H         43.11756       73.02034       93.97445
H         45.26485       72.85559       98.70038
H         44.53813       71.43517       97.88653
H         45.56649       72.59171       96.95076
N         41.78101       70.23484       98.28383
C         40.90535       69.86539       99.40021
C         41.46380       70.30148      100.73686
O         40.72213       70.26197      101.70909
C         40.71962       68.33547       99.46757
C         40.64330       67.72875       98.11122
O         39.73855       67.99621       97.33752
O         41.68960       66.98301       97.71955
H         42.69243       69.76044       98.19256
H         39.91424       70.34952       99.25867
H         39.85464       68.05126      100.10488
H         41.63506       67.90050       99.93096
N         42.78230       70.62812      100.89080
C         43.34987       70.97337      102.18346
C         44.88044       71.04477      102.09311
O         45.36719       71.80512      101.26728
C         42.79960       72.33998      102.65133
C         43.34231       72.70080      104.01018
C         44.24721       73.76469      104.14802
C         42.96651       71.96388      105.14647
C         44.78135       74.07531      105.40075
C         43.50035       72.27981      106.39855
C         44.41014       73.33272      106.52491
H         43.41813       70.57403      100.08451
H         43.03917       70.18695      102.89391
H         41.69064       72.34670      102.70368
H         43.09490       73.10222      101.89681
H         44.55252       74.34123      103.28377
H         42.26677       71.14107      105.06088
H         45.48781       74.88876      105.49753
H         43.21293       71.70478      107.26924
H         44.82834       73.57271      107.49325
N         45.71648       70.33626      102.92462
C         47.16468       70.53957      102.96344
C         47.96186       70.02577      101.77380
O         49.18067       70.12503      101.82806
C         47.60700       69.78535      104.22581
C         46.37334       69.87482      105.09656
C         45.29507       69.55711      104.07442
H         47.34431       71.62863      103.11282
H         47.74386       68.70425      103.98761
H         48.54604       70.16692      104.68078
H         46.38076       69.20325      105.98041
H         46.24695       70.92908      105.43639
H         45.33568       68.47693      103.80734
H         44.30901       69.80047      104.49899
N         47.37794       69.43250      100.69086
C         48.16188       68.82000       99.61464
C         49.10337       69.78018       98.89177
O         49.92143       69.29677       98.12067
C         47.24091       68.12112       98.58573
C         46.36480       69.12241       97.81314
C         45.45553       68.42816       96.84667
O         45.52758       68.66829       95.65269
O         44.53644       67.55571       97.29597
H         46.35331       69.34376      100.66696
H         48.79308       68.03704      100.09216
H         46.59512       67.39124       99.12219
H         47.86306       67.55293       97.85872
H         47.01091       69.83588       97.25575
H         45.74009       69.69324       98.52400
N         49.04366       71.13316       99.06139
C         49.93915       72.05609       98.39235
H         50.68492       71.53991       97.75136
H         49.34807       72.74583       97.75513
H         50.48918       72.64784       99.15345
H         48.32986       71.54761       99.67573
Ca        42.08111       66.54921       95.58909
O         44.79141       67.86057       92.74858
H         45.47681       68.56687       92.85474
H         45.19140       67.05878       93.16866
O         44.02658       64.66865       97.74368
H         44.28635       65.09100       98.60067
H         43.03968       64.60403       97.78640

Ca 1.0



