%chk=apoCaM-CA-Ng.loop4.water3.frame299.chk
%nprocshared=20
%mem=10GB
%nosave
#b3lyp/svp scf=(tight,noincore,xqc) Test 
#IOP(5/87=12) Density=Current Pop=(MK,readradii) iop(6/33=2) iop(6/42=6)

apoCaM-CA-Ng.loop4.water3.frame299 

   -3  1 
C         87.51685       37.19569       20.95585
C         88.87307       36.57260       20.85810
O         89.72244       36.88040       21.68075
H         86.75829       36.40179       21.11643
H         87.47482       37.90766       21.80858
H         87.29097       37.74319       20.01793
N         89.13555       35.65309       19.88380
C         90.41579       34.97622       19.72764
C         90.76147       34.20912       21.02800
O         92.13456       34.05413       21.11892
C         91.50963       35.91388       19.13316
C         91.90096       37.13170       19.92156
O         92.50985       37.01344       21.11256
O         91.71960       38.24383       19.45213
H         88.37555       35.39075       19.23817
H         90.31371       34.20621       18.92821
H         91.13523       36.25338       18.14222
H         92.43213       35.32290       18.93974
N         90.05007       32.90621       21.05018
C         89.99568       32.08165       22.29077
C         91.17517       31.10539       22.35329
O         90.95194       29.92858       22.10038
C         89.66644       32.88079       23.59138
C         89.54184       31.97674       24.85202
C         88.37709       33.70826       23.41338
C         88.46779       30.88536       24.78542
H         89.05989       33.08680       20.76076
H         89.11687       31.41394       22.13661
H         90.48684       33.59512       23.79345
H         89.30126       32.61724       25.72783
H         90.51968       31.49035       25.05303
H         88.14620       34.27348       24.33795
H         88.48832       34.44934       22.60060
H         87.51015       33.06150       23.16623
H         87.45786       31.31712       24.63298
H         88.68759       30.15652       23.98025
H         88.45487       30.33085       25.74661
N         92.45196       31.49929       22.61903
C         93.60966       30.65473       22.32054
C         94.08003       29.73407       23.46064
O         94.20642       28.55384       23.16165
C         94.72573       31.47877       21.64074
C         94.31555       32.05735       20.30208
O         93.20966       31.84665       19.82606
O         95.19526       32.80276       19.60789
H         92.62323       32.48787       22.82300
H         93.32833       29.94662       21.50439
H         95.60141       30.82106       21.45019
H         95.03053       32.31653       22.28720
N         94.35099       30.07117       24.76258
C         94.16869       31.35396       25.41352
C         95.25435       32.36678       25.08489
O         96.15446       32.03385       24.32871
H         94.62741       29.29784       25.38913
H         94.24539       31.19230       26.51037
H         93.13420       31.66986       25.22136
N         95.31627       33.61177       25.66049
C         94.38055       34.14390       26.66281
C         92.95940       34.42586       26.09055
O         92.87093       33.85625       24.83720
C         94.95646       35.44820       27.27344
C         95.09574       36.56761       26.27412
O         96.31135       37.07658       25.99976
O         94.10981       37.03910       25.72979
H         96.13127       34.19299       25.40839
H         94.32630       33.40129       27.48534
H         95.95504       35.21613       27.70262
H         94.33053       35.82071       28.10514
N         91.89201       33.79807       26.87153
C         91.73947       34.17404       28.27378
C         91.72370       32.90077       29.06776
O         92.74597       32.23402       29.14211
H         90.98379       33.96977       26.38300
H         90.78477       34.73449       28.39979
H         92.53766       34.82723       28.65661
N         90.57041       32.46792       29.64030
C         90.49244       31.23090       30.41528
C         89.07314       30.69516       30.65864
O         88.97479       29.64519       31.27952
C         91.29734       31.36272       31.74153
C         90.75145       32.31752       32.82829
C         90.72885       33.78331       32.45485
N         91.52296       34.67732       33.08908
O         89.96453       34.18035       31.59383
H         89.74865       33.05063       29.47031
H         90.97848       30.43358       29.80932
H         92.34612       31.65161       31.52100
H         91.34610       30.35127       32.20145
H         91.41906       32.19351       33.70933
H         89.73430       32.00435       33.14060
H         92.17688       34.38202       33.82758
H         91.48568       35.67607       32.83398
N         87.94037       31.30572       30.19235
C         86.58970       30.80243       30.40895
C         85.80864       31.73775       31.32091
O         84.65579       31.44115       31.60220
C         85.86822       30.54781       29.05371
C         86.58898       29.44644       28.26264
C         85.72691       31.81194       28.18651
H         87.98738       32.18131       29.67086
H         86.61406       29.82996       30.94943
H         84.84350       30.17528       29.27626
H         86.04192       29.22523       27.32156
H         87.62554       29.75325       28.00911
H         86.63287       28.51191       28.86227
H         85.18744       32.60784       28.74089
H         86.71402       32.20113       27.86112
H         85.14520       31.57632       27.27004
N         86.40281       32.82349       31.90432
C         85.77701       33.60102       32.96032
C         85.81545       35.09215       32.66896
O         84.77381       35.72933       32.74106
C         86.52584       33.31563       34.28168
C         86.57383       31.83776       34.60249
N         85.43982       31.12099       34.78136
O         87.65725       31.28023       34.69602
H         87.38635       33.04129       31.70159
H         84.71803       33.29573       33.11204
H         86.02923       33.85315       35.11836
H         87.57104       33.68773       34.20336
H         84.51375       31.56488       34.70909
H         85.48922       30.11212       34.98907
N         86.99967       35.72608       32.41458
C         87.15480       37.17698       32.41443
C         87.68011       37.73732       31.10493
O         88.46553       37.08941       30.42784
C         88.16499       37.54658       33.52043
C         87.72726       37.04713       34.87355
C         86.55274       37.54051       35.46175
C         88.48776       36.08300       35.55783
C         86.14321       37.07728       36.71377
C         88.07410       35.61804       36.80932
C         86.90281       36.11328       37.39210
O         86.51797       35.65846       38.60110
H         87.85444       35.16361       32.32850
H         86.18629       37.67473       32.63729
H         88.30024       38.64760       33.57426
H         89.15034       37.09857       33.25516
H         85.95600       38.28593       34.95174
H         89.39603       35.68427       35.12215
H         85.23575       37.46926       37.15448
H         88.66471       34.87188       37.32593
H         85.71693       35.97998       39.03890
N         87.37281       39.03168       30.78434
C         87.93567       39.82242       29.68952
C         87.55795       39.36407       28.29024
O         87.93384       40.06763       27.36208
C         89.47261       39.95191       29.81215
C         89.90350       40.57093       31.14883
C         91.39542       40.73072       31.20676
O         92.12336       39.75344       31.13114
O         91.93782       41.95515       31.34951
H         86.73332       39.53924       31.41553
H         87.51351       40.84966       29.78116
H         89.84247       40.61531       28.99824
H         89.95296       38.95914       29.68279
H         89.58306       39.92754       31.99315
H         89.42525       41.56846       31.26206
N         86.81513       38.24780       28.03487
C         86.47186       37.82794       26.67833
C         84.96763       37.85802       26.44227
O         84.55606       37.57539       25.32455
C         87.01550       36.40593       26.41709
C         88.52816       36.22435       26.65282
C         89.39493       37.00891       25.70514
O         90.14455       36.42568       24.93850
O         89.39095       38.35336       25.72480
H         86.47767       37.66441       28.81161
H         86.91089       38.51731       25.92703
H         86.77715       36.10219       25.37360
H         86.48977       35.70692       27.10409
H         88.75236       35.14408       26.52048
H         88.79185       36.49132       27.69736
N         84.07895       38.19143       27.42325
C         82.65240       38.21568       27.18492
H         82.11725       38.49160       28.11847
H         82.41159       38.96496       26.40135
H         82.30454       37.21187       26.86033
H         84.40097       38.43230       28.37054
Ca        92.47540       35.12647       23.07879
O         91.41897       39.24960       23.11315
H         91.25044       39.47284       22.16368
H         90.52671       39.01805       23.47141
O         94.57370       38.33786       23.03054
H         94.19064       39.16399       23.41883
H         95.41237       38.63338       22.59554
O         95.40309       35.34088       22.81352
H         96.33890       35.03287       22.90429
H         95.01886       34.76269       22.10778

Ca 1.0



