%chk=apoCaM-CA-Ng.loop1.water3.frame983.chk
%nprocshared=20
%mem=10GB
%nosave
#b3lyp/svp scf=(tight,noincore,xqc) Test 
#IOP(5/87=12) Density=Current Pop=(MK,readradii) iop(6/33=2) iop(6/42=6)

apoCaM-CA-Ng.loop1.water3.frame983 

   0  1 
C         57.58388       85.54695       57.48082
C         56.62140       84.95099       58.46591
O         55.75082       84.19089       58.06680
H         58.61814       85.23729       57.74292
H         57.36220       85.19934       56.44907
H         57.51786       86.65429       57.51000
N         56.74145       85.24632       59.78983
C         55.89394       84.67677       60.83072
C         55.13530       85.75654       61.58871
O         55.74067       86.61094       62.20972
C         56.71237       83.74953       61.76755
C         58.20841       84.00395       61.88380
O         58.96376       83.13167       61.48283
O         58.77208       85.11893       62.39973
H         57.49327       85.89161       60.07823
H         55.11282       84.02377       60.38184
H         56.64011       82.73601       61.30860
H         56.22182       83.65969       62.76058
N         53.77001       85.75995       61.57694
C         52.94831       86.72583       62.30125
C         53.12943       86.56995       63.79949
O         52.86435       85.49932       64.32796
C         51.46437       86.54894       61.88004
C         50.44068       87.52786       62.49899
C         49.97870       87.14694       63.91819
C         48.86315       88.08114       64.40759
N         48.35079       87.65234       65.70937
H         53.28643       85.04371       61.01315
H         53.24197       87.75171       61.98418
H         51.11667       85.50522       62.04329
H         51.45021       86.73342       60.78262
H         49.53076       87.47347       61.86150
H         50.82448       88.57064       62.45464
H         50.80783       87.19536       64.64510
H         49.58472       86.10745       63.89332
H         48.02363       88.08645       63.67774
H         49.26276       89.11315       64.48535
H         47.63304       88.33716       66.04018
H         47.90455       86.71027       65.62400
H         49.12427       87.60453       66.40854
N         53.50542       87.64549       64.55017
C         53.53948       87.64657       66.01683
C         53.64508       89.07610       66.56312
O         54.02626       89.97211       65.82299
C         54.63634       86.70426       66.57475
C         56.01340       87.03388       66.08118
O         56.57138       88.22920       66.35068
O         56.65028       86.19505       65.46600
H         53.67445       88.52561       64.04270
H         52.54422       87.28230       66.35096
H         54.39627       85.65911       66.28785
H         54.66784       86.73114       67.67963
N         53.21921       89.42739       67.81145
C         52.69357       88.52929       68.82372
C         51.19506       88.61099       68.91798
O         50.54688       88.97176       67.94926
H         53.22420       90.42985       68.05206
H         53.17376       88.78200       69.79317
H         52.91105       87.46702       68.62909
N         50.57284       88.17789       70.04564
C         49.12601       88.02283       70.16608
C         48.37976       89.31742       69.89108
O         47.53336       89.33282       69.00754
C         48.75937       87.48569       71.56893
C         49.41821       86.16168       71.85281
O         49.19014       85.19428       71.14415
O         50.26724       86.03970       72.89169
H         51.16965       87.90000       70.84015
H         48.79050       87.26767       69.41886
H         47.65880       87.35013       71.64327
H         49.07284       88.21750       72.34533
N         48.62001       90.43580       70.62728
C         47.84698       91.65951       70.48949
C         48.39744       92.63010       69.46733
O         47.89831       93.74536       69.42824
H         49.32232       90.39451       71.38092
H         47.87673       92.17635       71.47261
H         46.77641       91.43744       70.28402
N         49.41403       92.30300       68.61668
C         50.02151       93.26211       67.69412
C         51.51083       93.35885       67.95484
O         52.03912       92.58348       68.73974
C         49.72894       92.89572       66.22102
C         50.24443       91.50934       65.82477
O         48.34293       92.95570       66.00485
H         49.79217       91.34780       68.63186
H         49.60399       94.27794       67.86985
H         50.23536       93.65553       65.58058
H         48.20782       93.13728       65.03802
H         51.33537       91.41829       66.00935
H         49.70359       90.72476       66.38880
H         50.05929       91.34388       64.74365
N         52.25194       94.33402       67.34965
C         53.68590       94.48651       67.59919
C         53.93970       94.79955       69.07993
O         55.08069       94.70561       69.51340
C         54.32771       95.55202       66.64118
C         53.97417       95.32546       65.13950
C         55.86260       95.62585       66.79170
C         54.33629       93.94432       64.58679
H         51.76916       94.98459       66.71754
H         54.15576       93.50326       67.37683
H         53.92412       96.55433       66.90779
H         54.48493       96.10173       64.52837
H         52.89057       95.47803       64.96826
H         56.16260       95.95442       67.80441
H         56.33538       94.64384       66.58236
H         56.28128       96.37892       66.09034
H         55.42413       93.74916       64.66445
H         53.77529       93.14807       65.11864
H         54.05127       93.89742       63.51453
N         52.91715       95.12330       69.92861
C         53.07690       95.32843       71.35884
C         52.60393       96.71472       71.74495
O         52.16567       97.47077       70.88428
C         52.33849       94.20423       72.13999
C         50.81885       94.20482       71.93635
O         52.83924       92.95139       71.74992
H         51.96044       95.22532       69.56485
H         54.15043       95.26280       71.64323
H         52.50739       94.33151       73.23303
H         53.75784       92.87914       72.12016
H         50.36466       93.38743       72.53635
H         50.37790       95.16662       72.27203
H         50.55404       94.03238       70.87462
N         52.69421       97.12403       73.03593
C         52.34703       98.46129       73.48298
C         53.60770       99.11933       73.99943
O         53.99138      100.15336       73.47322
C         51.19980       98.40902       74.52926
C         50.82391       99.80974       75.03282
O         51.54837       97.59522       75.61935
H         53.06928       96.46473       73.73519
H         51.96982       99.07691       72.63410
H         50.31457       97.96624       74.01485
H         50.70491       97.35486       76.08509
H         51.67926      100.28064       75.56324
H         50.52152      100.45856       74.18395
H         49.97224       99.74142       75.74267
N         54.29468       98.57293       75.04259
C         55.46741       99.19431       75.63724
C         56.58948       98.19747       75.85994
O         56.34619       97.00319       75.95721
C         55.06764       99.84989       76.97823
C         54.39614       98.86368       77.95586
C         53.92411       99.55624       79.23384
C         53.13737       98.57108       80.11150
N         52.63123       99.22798       81.31422
H         53.93683       97.71152       75.47351
H         55.85069      100.00078       74.97418
H         54.34063      100.66093       76.75296
H         55.96061      100.31233       77.45316
H         55.09358       98.03695       78.21289
H         53.49295       98.43516       77.47630
H         53.25298      100.39990       78.96081
H         54.79911       99.95597       79.79071
H         53.79001       97.71708       80.39963
H         52.27458       98.16978       79.53210
H         53.42770       99.58193       81.89144
H         52.00271      100.02165       81.05052
H         52.08250       98.53640       81.87453
N         57.85826       98.66503       76.02274
C         58.98678       97.84761       76.45224
C         59.19326       96.59820       75.59651
O         59.16551       95.52151       76.17644
C         60.26374       98.71840       76.55192
C         61.41799       98.00674       77.26777
C         62.61411       98.91146       77.36132
O         63.16552       99.30950       76.34721
O         63.08394       99.28907       78.56563
H         58.01356       99.67660       75.89122
H         58.75421       97.51015       77.48832
H         60.02183       99.62905       77.14462
H         60.59539       99.04842       75.54708
H         61.70679       97.08179       76.72602
H         61.08839       97.73113       78.29367
N         59.40503       96.59231       74.24727
C         59.41321       97.74632       73.37418
H         59.19558       98.69394       73.89234
H         60.40424       97.82392       72.88044
H         58.63658       97.60904       72.59274
H         59.55585       95.67915       73.78993
Ca        58.10162       87.09801       63.25125
O         60.05484       86.45671       65.57108
H         60.66772       87.20340       65.78834
H         60.36439       85.70675       66.13845
O         59.15066       89.65124       64.70941
H         58.56867       90.26470       65.22430
H         60.07098       89.95928       64.90455
O         56.19048       89.56465       63.44518
H         55.96536       90.11869       62.65659
H         56.19512       90.20195       64.20253

Ca 1.0



