%chk=apoCaM-CA-Ng.loop3.water5.frame337.chk
%nprocshared=20
%mem=10GB
%nosave
#b3lyp/svp scf=(tight,noincore,xqc) Test 
#IOP(5/87=12) Density=Current Pop=(MK,readradii) iop(6/33=2) iop(6/42=6)

apoCaM-CA-Ng.loop3.water5.frame337 

   0  1 
C         83.85598       60.79692       65.32973
C         85.25404       60.25567       65.24739
O         85.48903       59.35811       64.45714
H         83.16102       59.97732       65.61198
H         83.77463       61.59919       66.09344
H         83.55200       61.20870       64.34520
N         86.23553       60.74328       66.05638
C         87.60576       60.23665       66.10461
C         87.60378       58.76934       66.53798
O         88.27673       57.93863       65.94301
C         88.32755       60.50963       64.76195
C         89.81110       60.25225       64.78005
O         90.43910       59.83910       65.89818
O         90.46139       60.44044       63.76445
H         85.99488       61.50121       66.71392
H         88.12577       60.81706       66.89935
H         88.18459       61.58022       64.49762
H         87.87101       59.89302       63.96130
N         86.78982       58.39248       67.56515
C         86.65250       57.03397       68.10492
C         86.27824       55.95273       67.09112
O         86.26188       54.78895       67.47178
C         85.53516       57.04701       69.18487
C         84.14729       57.33927       68.54170
C         83.01048       57.56229       69.53849
C         82.69741       56.33127       70.39443
N         81.55162       56.59713       71.26321
H         86.23471       59.14144       68.00572
H         87.63182       56.75946       68.55460
H         85.77660       57.82825       69.93786
H         85.50336       56.06752       69.70817
H         83.85914       56.51173       67.85682
H         84.20249       58.26404       67.93074
H         82.10125       57.81770       68.94923
H         83.25704       58.42845       70.18903
H         83.57734       56.07096       71.02039
H         82.46257       55.46716       69.73317
H         81.75806       57.40827       71.89070
H         80.70512       56.80815       70.68532
H         81.35982       55.75306       71.84858
N         85.87599       56.25499       65.82796
C         85.35632       55.26733       64.88859
C         86.39307       54.20025       64.55375
O         87.56846       54.36252       64.85121
C         84.88115       56.02430       63.62780
C         84.24094       55.20730       62.54513
O         83.05021       54.61416       62.71984
O         84.75704       55.15812       61.44483
H         85.85337       57.23883       65.54663
H         84.48615       54.77258       65.37426
H         85.76123       56.55479       63.20757
H         84.14489       56.80134       63.92717
N         85.98872       53.04496       63.95923
C         86.87673       51.95485       63.59338
C         87.84039       52.37302       62.51567
O         89.03719       52.16670       62.66315
H         84.98511       52.91588       63.76941
H         86.25803       51.13081       63.17717
H         87.40960       51.56240       64.48699
N         87.36921       52.99543       61.40130
C         88.20656       53.43217       60.29172
C         88.46376       54.93664       60.31618
O         89.22916       55.40387       59.48717
C         87.60730       52.97336       58.93924
C         86.23128       53.54389       58.64739
N         86.04814       54.41193       57.62944
O         85.26958       53.20717       59.31985
H         86.36647       53.21451       61.38125
H         89.21292       52.96698       60.38444
H         87.54232       51.86436       58.90840
H         88.31280       53.28180       58.13764
H         86.83903       54.70228       57.04175
H         85.11287       54.80042       57.43740
N         87.89690       55.74841       61.25475
C         88.20571       57.16368       61.39510
C         87.01144       58.04890       61.13148
O         87.05643       59.20622       61.53158
H         87.24143       55.35512       61.93762
H         89.03376       57.49485       60.73413
H         88.54076       57.31523       62.44443
N         85.94105       57.62097       60.40608
C         84.79310       58.47258       60.12227
C         83.87872       57.80978       59.11853
O         83.41158       56.70251       59.36338
C         83.96577       58.77048       61.39245
C         82.89777       59.80075       61.10503
C         83.26518       61.13231       60.84885
C         81.53855       59.44742       61.07779
C         82.29169       62.09450       60.57016
C         80.56562       60.40974       60.78514
C         80.94050       61.73789       60.53153
O         80.01552       62.67635       60.24612
H         85.97532       56.67922       59.98569
H         85.17412       59.42883       59.69842
H         84.59749       59.16060       62.20756
H         83.50997       57.82199       61.74806
H         84.30733       61.42577       60.87213
H         81.23290       58.42656       61.26407
H         82.58968       63.11774       60.37938
H         79.52245       60.12191       60.75080
H         79.07138       62.47053       60.19469
N         83.54379       58.45826       57.97640
C         82.61780       57.90793       57.00359
C         83.39013       57.03109       56.02602
O         82.82655       56.07049       55.52473
C         81.82176       59.05337       56.30011
C         81.13368       59.97777       57.33989
C         80.76617       58.47906       55.34358
C         80.49993       61.22410       56.71561
H         83.94092       59.39602       57.80309
H         81.86571       57.27712       57.53387
H         82.54813       59.66222       55.71710
H         81.88644       60.35324       58.06049
H         80.36586       59.41019       57.91022
H         80.02942       57.85142       55.89104
H         80.22877       59.26818       54.78460
H         81.26140       57.87230       54.58757
H         79.66800       60.97124       56.02986
H         80.08348       61.86765       57.51707
H         81.26998       61.80332       56.16206
N         84.69656       57.30492       55.71262
C         85.46083       56.50883       54.75390
C         84.89112       56.62157       53.35271
O         85.24499       55.80144       52.51437
C         86.93123       56.96276       54.70246
O         87.55277       56.81765       55.95110
H         85.16225       58.10185       56.16592
H         85.42076       55.44578       55.07952
H         86.99522       58.01988       54.35095
H         87.49357       56.34796       53.96695
H         87.45719       57.68041       56.43159
N         84.01545       57.61493       53.01839
C         83.39943       57.76745       51.71127
C         82.64237       56.50412       51.34971
O         82.85107       55.93661       50.28833
C         84.43715       58.17746       50.65740
H         83.74170       58.30979       53.72846
H         82.66383       58.59983       51.78097
H         85.20655       57.39113       50.51559
H         83.93290       58.36519       49.68589
H         84.94120       59.11569       50.97437
N         81.75533       55.99611       52.24719
C         80.99579       54.78103       52.05494
C         79.52248       55.09154       52.15153
O         79.07204       55.56535       53.18531
C         81.37575       53.76159       53.13406
H         81.63023       56.48002       53.13562
H         81.22374       54.32523       51.06829
H         81.16712       54.16104       54.15085
H         80.79200       52.82620       52.99511
H         82.45702       53.51935       53.06582
N         78.70504       54.80656       51.10118
C         77.25537       54.91850       51.13534
C         76.82268       56.36434       51.33244
O         76.09623       56.66556       52.27045
C         76.71031       53.92835       52.19513
C         75.22002       53.61299       52.03674
C         74.78938       52.60783       53.06922
O         73.80917       52.91187       53.94018
O         75.32287       51.51005       53.12221
H         79.12337       54.42865       50.23848
H         76.88350       54.58538       50.14080
H         76.91862       54.30217       53.22174
H         77.25586       52.96675       52.06700
H         75.04472       53.18044       51.02760
H         74.61190       54.53494       52.13886
N         77.25765       57.32093       50.46396
C         76.89949       58.72281       50.56353
H         76.20859       58.92771       51.40825
H         77.81811       59.32985       50.70697
H         76.40398       59.04293       49.62288
H         77.88380       57.04748       49.69143
Ca        82.15210       53.88247       60.77350
O         80.38882       52.25296       62.26876
H         80.17510       53.08406       62.76328
H         79.63734       52.14069       61.63413
O         83.90107       51.69659       61.64663
H         83.41873       51.40184       62.45947
H         84.33451       50.87780       61.29938
O         82.50276       53.72153       57.40239
H         81.66665       53.87296       56.89424
H         83.11435       53.29334       56.75179
O         80.41970       56.23530       59.83623
H         79.73772       55.86063       59.22450
H         80.04728       56.09358       60.74283
O         81.94205       51.31235       59.15498
H         82.66643       50.82882       58.68415
H         81.59153       50.66049       59.81244

Ca 1.0



