%chk=apoCaM-CA-Ng.loop4.water4.frame405.chk
%nprocshared=20
%mem=10GB
%nosave
#b3lyp/svp scf=(tight,noincore,xqc) Test 
#IOP(5/87=12) Density=Current Pop=(MK,readradii) iop(6/33=2) iop(6/42=6)

apoCaM-CA-Ng.loop4.water4.frame405 

   -3  1 
C         21.86433       92.58249       16.42443
C         23.34758       92.39667       16.50014
O         23.85588       91.53874       15.80516
H         21.41077       92.41695       17.42178
H         21.63902       93.61038       16.07188
H         21.42042       91.86054       15.70269
N         24.11316       93.19298       17.29947
C         25.57058       93.12803       17.36454
C         26.20612       93.40631       16.02147
O         26.81861       92.52248       15.45950
C         26.14603       91.90624       18.14127
C         25.66510       90.47727       17.94547
O         25.76890       89.75678       16.80558
O         25.23363       89.89537       18.92868
H         23.64197       93.92847       17.84749
H         25.92687       93.98037       17.98861
H         25.94155       92.13131       19.21345
H         27.25351       91.92418       18.03803
N         26.12096       94.66691       15.49442
C         26.73011       95.18101       14.26013
C         28.26257       95.25482       14.37955
O         28.78940       96.35536       14.46321
C         26.22137       94.44601       12.98657
C         26.59402       95.19390       11.67341
C         24.70145       94.19782       13.04229
C         25.88190       96.54078       11.46185
H         25.57016       95.35418       16.03311
H         26.37193       96.23028       14.19003
H         26.70464       93.44993       12.95619
H         26.32445       94.54601       10.81105
H         27.68970       95.36330       11.63539
H         24.36327       93.69058       12.11764
H         24.44151       93.53864       13.89418
H         24.13477       95.14235       13.16450
H         26.12735       97.27022       12.25857
H         26.19900       96.97873       10.49275
H         24.78068       96.41023       11.41393
N         29.03220       94.13120       14.45757
C         30.44868       94.12082       14.80219
C         31.35597       94.53552       13.64089
O         32.19539       95.39535       13.86513
C         30.83085       92.72554       15.38005
C         32.21100       92.63422       15.97842
O         33.04244       93.69310       16.00081
O         32.57693       91.57907       16.47164
H         28.58538       93.21990       14.36347
H         30.59873       94.81046       15.66491
H         30.74417       91.93094       14.62246
H         30.11328       92.48169       16.19502
N         31.32495       93.96644       12.39521
C         30.26745       93.08117       11.93791
C         30.53594       92.45450       10.57671
O         31.03248       93.15898        9.70963
H         32.05951       94.24117       11.72467
H         29.33638       93.67788       11.86380
H         30.09460       92.31095       12.67155
N         30.14385       91.17874       10.23706
C         29.40722       90.23607       11.08673
C         28.15507       90.92414       11.61315
O         28.03181       91.10992       12.81380
C         30.31682       89.60892       12.17146
C         31.44403       88.83582       11.54459
O         32.72121       89.17117       11.80695
O         31.20814       87.89576       10.80155
H         30.30794       90.87999        9.26281
H         29.08170       89.36446       10.48067
H         29.71773       88.90513       12.78694
H         30.75138       90.35453       12.85503
N         27.19874       91.41423       10.77539
C         27.07678       91.06851        9.37220
C         27.45372       92.17145        8.43619
O         27.94642       93.21308        8.84571
H         26.45547       92.00490       11.17048
H         26.02979       90.76156        9.18361
H         27.69986       90.20040        9.09487
N         27.25976       91.94929        7.11080
C         27.67893       92.84649        6.04926
C         26.48715       93.51625        5.38220
O         26.71802       94.41611        4.58555
C         28.68098       92.11576        5.10990
C         28.27114       90.70959        4.62238
C         27.13024       90.70780        3.65516
N         27.31104       91.15542        2.39418
O         26.05274       90.24230        3.98820
H         26.77474       91.07994        6.84562
H         28.24100       93.70306        6.48460
H         29.59802       91.94789        5.71687
H         28.96896       92.76789        4.25751
H         28.04244       90.05715        5.48879
H         29.13273       90.22083        4.11930
H         28.22626       91.51650        2.08929
H         26.55068       91.09016        1.70733
N         25.19649       93.23629        5.74899
C         24.07192       94.11268        5.42187
C         23.03837       93.47616        4.50592
O         22.10630       94.17386        4.13206
C         23.41155       94.63046        6.73878
C         24.44797       95.31808        7.64539
C         22.69251       93.51971        7.53054
H         25.00568       92.44432        6.37574
H         24.44381       95.00447        4.87011
H         22.64548       95.38944        6.46476
H         23.95503       95.73491        8.54954
H         25.22507       94.59755        7.98222
H         24.94481       96.14996        7.10367
H         23.39371       92.73246        7.87414
H         22.20275       93.95318        8.42817
H         21.90056       93.04607        6.91340
N         23.13773       92.18464        4.08073
C         22.19838       91.58331        3.13758
C         21.48548       90.36669        3.71115
O         20.66672       89.81084        2.98944
C         22.97756       91.18311        1.86682
C         23.54891       92.38746        1.15750
N         22.73570       93.31361        0.60173
O         24.75732       92.52330        1.06675
H         23.92700       91.60710        4.39755
H         21.39890       92.30107        2.85335
H         22.31887       90.65061        1.14758
H         23.79589       90.48675        2.15890
H         21.71209       93.21186        0.64462
H         23.13464       94.12696        0.10966
N         21.71419       89.88637        4.97086
C         21.07295       88.66584        5.47760
C         21.40377       88.38996        6.93236
O         22.45160       88.82112        7.38355
C         21.49555       87.43598        4.62148
C         23.00408       87.35409        4.41940
C         23.54396       87.59059        3.14193
C         23.88779       87.06950        5.47804
C         24.92642       87.56537        2.93606
C         25.26877       87.04699        5.27203
C         25.79416       87.29846        4.00390
O         27.13053       87.29131        3.82581
H         22.36869       90.39423        5.58321
H         19.96978       88.80649        5.42873
H         21.01325       87.53449        3.62941
H         21.10056       86.48911        5.04772
H         22.89622       87.81423        2.30384
H         23.52746       86.86544        6.46919
H         25.32184       87.76539        1.94865
H         25.93135       86.84040        6.10369
H         27.53617       87.48701        2.96932
N         20.58701       87.56979        7.67129
C         20.82241       87.06389        9.03063
C         20.68708       88.10537       10.13988
O         19.89412       87.87056       11.04326
C         22.13330       86.25066        9.12270
C         22.12835       85.02524        8.17855
C         21.13957       83.94321        8.54951
O         20.38434       84.02329        9.66314
O         21.04135       82.95658        7.83811
H         19.74094       87.20908        7.20280
H         20.00460       86.34667        9.24796
H         22.29074       85.88804       10.16227
H         22.99242       86.90576        8.87356
H         23.13773       84.56247        8.18820
H         21.91410       85.35902        7.14269
N         21.39273       89.27050       10.15916
C         21.27345       90.26953       11.21549
C         19.84248       90.78394       11.33918
O         19.53622       91.41238       12.34282
C         22.20094       91.49116       10.95776
C         23.66693       91.15811       10.62386
C         24.37057       90.43066       11.72363
O         24.78435       89.29669       11.54968
O         24.62629       91.07412       12.87322
H         22.03236       89.46009        9.40588
H         21.56782       89.76989       12.16583
H         22.16640       92.16965       11.83920
H         21.80327       92.05061       10.08318
H         24.21170       92.10130       10.41378
H         23.73893       90.57335        9.68925
N         18.92330       90.58016       10.34649
C         17.54573       91.01453       10.41862
H         17.30473       91.50379       11.38408
H         17.34361       91.72718        9.59204
H         16.88402       90.13071       10.29645
H         19.19611       90.10513        9.47488
Ca        25.78528       90.22082       14.60074
O         27.00222       87.86579       12.68769
H         26.25180       87.26163       12.45912
H         27.77711       87.49167       12.19951
O         28.77742       89.59475       15.59580
H         29.69651       89.27998       15.40657
H         28.75835       90.52220       15.25269
O         26.79426       87.17105       15.59053
H         26.63097       87.17530       16.56685
H         27.63340       86.65724       15.48111
O         23.44052       88.40309       15.35777
H         23.40670       87.41766       15.44417
H         23.25812       88.73874       16.27140

Ca 1.0



