%chk=apoCaM-CA-Ng.loop3.water6.frame449.chk
%nprocshared=20
%mem=10GB
%nosave
#b3lyp/svp scf=(tight,noincore,xqc) Test 
#IOP(5/87=12) Density=Current Pop=(MK,readradii) iop(6/33=2) iop(6/42=6)

apoCaM-CA-Ng.loop3.water6.frame449 

   0  1 
C         79.93839       56.61260       86.00821
C         80.07087       55.28046       85.32730
O         79.08184       54.77143       84.82211
H         79.58439       57.37286       85.28195
H         79.21166       56.53341       86.84291
H         80.91069       56.95266       86.42588
N         81.27993       54.65501       85.28538
C         81.53714       53.35464       84.67892
C         80.77097       52.24939       85.40212
O         80.19996       51.38291       84.75361
C         81.28481       53.41079       83.14748
C         81.75966       52.20374       82.37780
O         82.38169       51.17765       82.99082
O         81.59212       52.16308       81.16929
H         82.08773       55.12463       85.72352
H         82.61943       53.14764       84.83781
H         81.82248       54.29086       82.73255
H         80.19978       53.54743       82.95319
N         80.70683       52.23227       86.76761
C         80.06831       51.15844       87.52330
C         78.64835       51.51739       87.96299
O         78.04220       50.74765       88.69526
C         80.95355       50.71066       88.71490
C         82.39490       50.31381       88.30732
C         83.43673       51.45121       88.41159
C         83.79314       51.75797       89.88281
N         84.80313       52.81065       89.98464
H         81.08546       53.03338       87.29361
H         79.95270       50.26167       86.87462
H         80.46190       49.79701       89.11449
H         80.96014       51.45742       89.53494
H         82.36981       49.89042       87.27956
H         82.75575       49.50077       88.97347
H         83.10250       52.36449       87.88434
H         84.37127       51.10752       87.91792
H         84.19592       50.83049       90.35033
H         82.89683       52.06798       90.45842
H         85.06710       52.93119       90.99003
H         85.65902       52.55110       89.44279
H         84.41420       53.71303       89.62774
N         78.02223       52.62541       87.47465
C         76.63524       52.99919       87.75469
C         75.69016       51.87236       87.35633
O         75.86130       51.30472       86.28691
C         76.33419       54.29947       86.97383
C         75.03100       55.02869       87.29277
O         74.83806       55.31164       88.64383
O         73.88361       54.41933       86.80930
H         78.54656       53.22671       86.82654
H         76.53046       53.22401       88.83813
H         76.39292       54.11598       85.87690
H         77.12959       55.03216       87.22751
N         74.66981       51.49290       88.18168
C         73.75121       50.38780       87.91255
C         72.88592       50.51592       86.65991
O         72.13381       49.58851       86.39697
H         74.55591       51.99145       89.07496
H         73.06928       50.27365       88.78363
H         74.34677       49.45263       87.82749
N         72.96930       51.58157       85.81327
C         72.31216       51.64627       84.51148
C         73.01811       52.67513       83.61663
O         72.37090       53.48462       82.96767
C         70.78492       51.88590       84.64484
C         70.40910       53.21145       85.27378
N         69.10752       53.55194       85.39750
O         71.26783       53.98681       85.66639
H         73.62546       52.32194       86.03681
H         72.48207       50.66800       84.01034
H         70.32820       51.07392       85.24999
H         70.33289       51.84529       83.63063
H         68.36014       52.92304       85.07001
H         68.85073       54.45451       85.81832
N         74.38235       52.66661       83.54705
C         75.21831       53.52183       82.71063
C         75.20125       55.02534       82.98022
O         75.99761       55.70923       82.35303
H         74.88290       51.95554       84.09790
H         74.96465       53.34636       81.64475
H         76.27042       53.19275       82.86440
N         74.33492       55.62933       83.83919
C         74.26588       57.08026       84.03152
C         72.87223       57.44396       84.51671
O         72.40412       56.90496       85.51066
C         75.36469       57.57521       84.99510
C         75.13268       58.99380       85.47130
C         75.19238       60.08796       84.59344
C         74.81981       59.21886       86.82508
C         74.93777       61.38286       85.06566
C         74.55796       60.50702       87.29026
C         74.61457       61.59531       86.41182
O         74.35587       62.84417       86.84952
H         73.63959       55.05119       84.32322
H         74.41371       57.59665       83.05736
H         76.37251       57.46645       84.53952
H         75.34598       56.93261       85.87465
H         75.43095       59.93971       83.54821
H         74.75927       58.39246       87.52305
H         74.98321       62.22241       84.38394
H         74.30512       60.65438       88.33310
H         74.11492       63.02551       87.76986
N         72.15343       58.37177       83.82866
C         70.75945       58.68509       84.10369
C         69.93063       57.48022       83.67781
O         69.15271       56.98312       84.47823
C         70.35328       60.00473       83.37392
C         71.23235       61.21481       83.82286
C         68.86564       60.35160       83.57254
C         71.08890       61.62327       85.29754
H         72.60813       58.84580       83.03327
H         70.61166       58.86745       85.18890
H         70.51998       59.86126       82.28273
H         70.96774       62.09766       83.20190
H         72.30379       61.00030       83.63259
H         68.61286       60.47783       84.64362
H         68.61899       61.28640       83.02422
H         68.20801       59.56099       83.18449
H         71.38628       60.80362       85.98034
H         71.75029       62.48959       85.50582
H         70.05198       61.93927       85.53121
N         70.11433       56.90565       82.44886
C         69.42566       55.67833       82.04441
C         67.93590       55.88481       81.80309
O         67.22672       54.89720       81.66581
C         70.08514       55.06862       80.79787
O         69.98371       55.94894       79.71197
H         70.82887       57.30671       81.82239
H         69.55160       54.94027       82.86808
H         69.59386       54.10299       80.54419
H         71.15684       54.87460       81.03248
H         70.63035       55.62490       79.03228
N         67.39083       57.13397       81.74909
C         65.97064       57.42750       81.61312
C         65.19198       56.79480       82.75708
O         64.21935       56.09147       82.52427
C         65.45830       57.01923       80.22370
H         68.01280       57.94430       81.82789
H         65.84762       58.53083       81.69403
H         65.53569       55.92360       80.06751
H         64.39680       57.32196       80.10269
H         66.05742       57.53060       79.43965
N         65.63007       56.96911       84.03682
C         65.02437       56.33116       85.19901
C         64.85536       57.34147       86.31178
O         65.83550       57.97643       86.67596
C         65.94406       55.21389       85.68236
H         66.49323       57.51398       84.18477
H         64.05059       55.85957       84.94158
H         65.49508       54.70152       86.56018
H         66.08667       54.46709       84.87195
H         66.93000       55.62895       85.97088
N         63.64500       57.53385       86.91365
C         63.42668       58.49784       87.98949
C         63.74748       59.88995       87.48000
O         64.59544       60.57501       88.03844
C         64.23006       58.12707       89.26535
C         63.80365       56.77377       89.85175
C         64.61403       56.44099       91.07328
O         64.00904       56.29116       92.26716
O         65.82348       56.29515       90.98814
H         62.83389       56.98612       86.58990
H         62.34809       58.49017       88.26431
H         64.05486       58.90531       90.04126
H         65.31840       58.10978       89.04791
H         63.94235       55.96378       89.10453
H         62.72727       56.82246       90.12706
N         63.09970       60.36326       86.38221
C         63.38498       61.66350       85.82010
H         64.45179       61.71476       85.51363
H         62.75028       61.83391       84.92495
H         63.17295       62.45588       86.56824
H         62.38917       59.77445       85.92063
Ca        72.56379       55.15996       88.48207
O         70.29733       55.90935       90.24239
H         69.37188       55.59484       90.08528
H         70.34796       56.06339       91.21852
O         72.82297       53.19711       90.55495
H         73.62014       53.78257       90.60903
H         72.12175       53.68665       91.05254
O         70.25899       53.05771       88.52771
H         69.30982       52.99624       88.25294
H         70.52190       52.12466       88.72862
O         71.99039       58.31103       88.28859
H         71.73320       58.80966       89.10387
H         71.90591       58.97166       87.55648
O         69.56385       56.51373       87.40614
H         69.75107       57.40576       87.02180
H         68.62669       56.57336       87.71930
O         73.47703       56.80842       90.71613
H         73.14559       57.01489       91.62498
H         74.13945       57.51725       90.51866

Ca 1.0



