%chk=apoCaM-CA-Ng.loop4.water2.frame436.chk
%nprocshared=20
%mem=10GB
%nosave
#b3lyp/svp scf=(tight,noincore,xqc) Test 
#IOP(5/87=12) Density=Current Pop=(MK,readradii) iop(6/33=2) iop(6/42=6)

apoCaM-CA-Ng.loop4.water2.frame436 

   -3  1 
C         89.18579       76.82120       81.64504
C         88.30761       76.00425       82.54125
O         88.42453       74.78902       82.52564
H         89.86314       76.16393       81.05651
H         88.55943       77.40966       80.94368
H         89.80437       77.50813       82.25887
N         87.41874       76.61521       83.37956
C         86.54472       75.90224       84.30633
C         87.37104       75.03939       85.24614
O         87.29012       73.82709       85.18249
C         85.34447       75.22600       83.58336
C         85.64761       74.22037       82.50682
O         86.25278       73.05725       82.80127
O         85.29674       74.43721       81.35724
H         87.38708       77.64586       83.39105
H         86.03910       76.64878       84.95956
H         84.75495       76.04701       83.11568
H         84.68752       74.74411       84.34001
N         88.19596       75.65615       86.14881
C         89.10000       75.03837       87.12784
C         88.35364       74.22917       88.19082
O         88.27840       74.70026       89.31759
C         90.28543       74.30936       86.43808
C         91.27259       73.64532       87.43771
C         91.03614       75.29861       85.52343
C         91.93127       74.59273       88.44368
H         88.19250       76.68814       86.14211
H         89.55682       75.89037       87.68103
H         89.88523       73.49786       85.79766
H         92.07673       73.13853       86.86002
H         90.74121       72.86432       88.01393
H         91.90469       74.81112       85.05105
H         90.37397       75.67411       84.71605
H         91.41026       76.17339       86.09458
H         91.17197       75.06722       89.09733
H         92.62053       74.01082       89.09152
H         92.52336       75.37743       87.93254
N         87.76400       73.03005       87.92613
C         86.90478       72.34237       88.88177
C         87.68275       71.55834       89.94565
O         87.43950       71.85021       91.10845
C         85.80488       71.54323       88.15351
C         84.85791       72.42365       87.36736
O         83.92538       71.91479       86.76711
O         85.01004       73.76328       87.32773
H         87.84751       72.62245       86.99143
H         86.31404       73.10732       89.44008
H         85.19762       70.99841       88.90893
H         86.24866       70.82697       87.44639
N         88.63977       70.59996       89.72746
C         89.17905       70.15839       88.45381
C         88.29407       69.18028       87.71522
O         87.23447       68.83683       88.21955
H         89.10658       70.21348       90.56355
H         90.12364       69.60849       88.65318
H         89.43571       71.04262       87.85638
N         88.66241       68.62714       86.51892
C         89.94930       68.85465       85.84498
C         90.13304       70.32273       85.46199
O         89.14059       71.03700       85.44255
C         90.01693       67.96331       84.57208
C         89.05993       68.46559       83.52433
O         87.91269       68.05192       83.48291
O         89.40425       69.54890       82.80223
H         87.99698       67.96077       86.09533
H         90.74281       68.53919       86.55353
H         89.78116       66.91091       84.84232
H         91.02211       67.93182       84.11807
N         91.32232       70.86924       85.07427
C         92.61969       70.21585       85.05802
C         93.18408       70.01302       86.43717
O         92.53506       70.33741       87.42233
H         91.31193       71.85234       84.77246
H         93.33708       70.89839       84.55662
H         92.60975       69.28375       84.47072
N         94.45611       69.54109       86.56160
C         95.15750       69.45705       87.83540
C         96.29144       70.48369       87.92059
O         96.82208       70.64858       89.01011
C         95.56332       67.99910       88.15605
C         96.34308       67.24732       87.06457
C         97.64755       67.89034       86.71482
N         98.61030       68.05769       87.64652
O         97.84356       68.25270       85.56713
H         94.96889       69.29215       85.70169
H         94.47269       69.76091       88.65784
H         94.62731       67.41952       88.31354
H         96.12317       67.97842       89.11584
H         95.71287       67.16154       86.15290
H         96.54745       66.21445       87.41922
H         98.46976       67.75128       88.61950
H         99.50171       68.49398       87.38773
N         96.64452       71.27988       86.86064
C         97.48359       72.47567       86.99407
C         98.79366       72.41665       86.21255
O         99.52930       73.39374       86.26663
C         96.66029       73.73507       86.57247
C         95.40751       73.89670       87.44636
C         96.25588       73.72992       85.08339
H         96.23447       71.10121       85.93653
H         97.77845       72.61984       88.05689
H         97.29568       74.63312       86.74099
H         94.87103       74.83028       87.17367
H         94.71134       73.04134       87.31061
H         95.69141       73.96135       88.51794
H         95.73491       74.67768       84.83013
H         97.15107       73.65263       84.43153
H         95.56449       72.89666       84.84199
N         99.17237       71.32652       85.48880
C        100.41641       71.25979       84.72525
C        100.17109       70.97774       83.24787
O        101.15307       70.87536       82.52598
C        101.34245       70.17007       85.31200
C        101.80539       70.48750       86.71507
N        102.52277       71.60581       86.97383
O        101.55864       69.71303       87.62515
H         98.56690       70.50052       85.48448
H        100.96276       72.22660       84.76340
H        102.25902       70.08453       84.68851
H        100.81912       69.18825       85.28481
H        102.76593       72.26771       86.22354
H        102.84693       71.80591       87.93176
N         98.91924       70.87117       82.70405
C         98.72701       70.58265       81.28002
C         97.30112       70.79853       80.80668
O         96.40251       70.84122       81.62709
C         99.17969       69.13198       80.95320
C         98.55431       68.06578       81.85110
C         99.38194       67.27758       82.67354
C         97.16550       67.82829       81.88275
C         98.83679       66.28650       83.49838
C         96.62206       66.84284       82.71028
C         97.45256       66.06754       83.51943
O         96.91014       65.12284       84.31406
H         98.09651       71.03071       83.30027
H         99.32856       71.32045       80.70360
H        100.28206       69.08501       81.06481
H         98.96930       68.89445       79.88864
H        100.45387       67.42718       82.67941
H         96.48438       68.39193       81.27646
H         99.49044       65.69284       84.12427
H         95.55069       66.68230       82.72121
H         97.44749       64.56985       84.89854
N         97.05332       70.88791       79.45754
C         95.75284       71.00648       78.78754
C         95.05441       72.35440       78.96681
O         94.78551       72.99369       77.95800
C         94.83390       69.81096       79.10239
C         95.45888       68.49981       78.58794
C         94.56622       67.32484       78.85702
O         94.23985       66.99647       80.12132
O         94.14350       66.65157       77.93064
H         97.86771       70.81871       78.82853
H         95.94566       70.94462       77.69035
H         93.86664       69.95386       78.57065
H         94.61987       69.75488       80.19025
H         96.44245       68.31770       79.06371
H         95.63315       68.58446       77.49212
N         94.69775       72.84902       80.18413
C         93.94251       74.08387       80.37005
C         94.65481       75.32490       79.84013
O         94.03024       76.37760       79.82475
C         93.60731       74.30438       81.86958
C         92.92818       73.11965       82.58972
C         91.63517       72.69100       81.96069
O         91.62822       72.18363       80.85120
O         90.48041       72.81441       82.63962
H         94.91567       72.30810       81.00991
H         92.99387       73.98011       79.80119
H         92.94750       75.19545       81.96323
H         94.55088       74.52161       82.41873
H         92.74585       73.42999       83.63222
H         93.59559       72.23986       82.65740
N         95.94286       75.30087       79.39136
C         96.58472       76.48015       78.85326
H         97.62387       76.23824       78.54469
H         96.02640       76.83886       77.96181
H         96.61531       77.28220       79.62039
H         96.49821       74.43564       79.42579
Ca        87.82979       70.77833       81.77468
O         85.93824       70.40077       84.43451
H         85.72876       71.29656       84.79919
H         85.97110       69.81045       85.22828
O         88.28853       72.91279       79.79825
H         89.15695       72.76610       80.24812
H         88.20709       72.15045       79.17186

Ca 1.0



