%chk=apoCaM-CA-Ng.loop1.water3.frame1434.chk
%nprocshared=20
%mem=10GB
%nosave
#b3lyp/svp scf=(tight,noincore,xqc) Test 
#IOP(5/87=12) Density=Current Pop=(MK,readradii) iop(6/33=2) iop(6/42=6)

apoCaM-CA-Ng.loop1.water3.frame1434 

   0  1 
C         78.55464       88.70316       28.19064
C         78.96070       89.96995       27.50123
O         78.82876       90.03402       26.28789
H         77.48261       88.50036       27.98711
H         79.16257       87.86022       27.79703
H         78.70798       88.76913       29.28717
N         79.49699       91.01167       28.20390
C         79.95884       92.24161       27.56711
C         81.46965       92.29513       27.59728
O         82.06786       93.28576       27.99295
C         79.24471       93.47337       28.16041
C         79.38200       93.59204       29.65685
O         80.47640       93.73563       30.17694
O         78.28209       93.54796       30.43271
H         79.63258       90.90727       29.22085
H         79.72045       92.22292       26.48965
H         78.16343       93.38511       27.91874
H         79.62473       94.39835       27.67477
N         82.14863       91.21141       27.14350
C         83.59253       91.12756       27.05639
C         84.10809       91.89023       25.84250
O         85.00370       92.69779       26.05015
C         84.06004       89.66032       27.20096
C         83.63141       89.15815       28.60349
C         84.07292       87.73555       28.94868
C         83.59761       87.39476       30.37553
N         83.98132       86.04061       30.76558
H         81.60370       90.37852       26.87802
H         84.03883       91.62455       27.94989
H         85.16969       89.62160       27.13478
H         83.63356       89.02008       26.39946
H         82.52430       89.20221       28.69087
H         84.06724       89.83892       29.36949
H         85.18129       87.66465       28.89982
H         83.62893       87.02104       28.22299
H         82.48922       87.48713       30.43122
H         84.03909       88.11843       31.09836
H         83.54731       85.34476       30.11733
H         85.02221       85.94411       30.75274
H         83.63673       85.85875       31.73669
N         83.59521       91.82714       24.57254
C         82.48423       91.00886       24.07789
C         81.22455       91.84550       23.87586
O         81.26751       93.05998       24.00615
C         82.89889       90.24586       22.79716
C         83.80676       91.02588       21.86612
O         83.46847       92.17296       21.23018
O         84.95035       90.62054       21.72715
H         84.00342       92.49270       23.90045
H         82.19745       90.24827       24.82229
H         82.01767       89.83380       22.26253
H         83.49780       89.37160       23.13975
N         80.02272       91.21813       23.68162
C         78.74210       91.91870       23.68946
C         78.48907       92.73561       22.45787
O         79.25514       92.64347       21.51841
H         80.00204       90.18762       23.64600
H         78.68581       92.57213       24.58130
H         77.91507       91.17882       23.75462
N         77.38558       93.53421       22.38104
C         77.02242       94.31159       21.18724
C         75.49956       94.51780       21.12289
O         74.83473       94.26413       22.11965
C         77.77904       95.67519       21.18334
C         79.26740       95.48635       21.23248
O         79.90281       95.87340       22.19900
O         79.88188       94.78245       20.26355
H         76.76187       93.53808       23.20288
H         77.29000       93.69846       20.30519
H         77.45468       96.26456       22.06951
H         77.55665       96.27494       20.28762
N         74.82184       94.94612       20.01384
C         75.38519       95.24281       18.70705
C         75.94772       94.01823       18.03019
O         75.19662       93.09205       17.75976
H         73.80000       95.06479       20.10181
H         76.12489       96.05485       18.77852
H         74.57674       95.62646       18.04683
N         77.27197       93.95503       17.71640
C         77.87940       92.85186       16.98355
C         78.75827       92.03321       17.90829
O         79.55137       92.59900       18.64005
C         78.71655       93.38710       15.79613
C         77.87189       94.18780       14.80369
O         79.30023       92.31179       15.10244
H         77.88691       94.72864       18.01327
H         77.10036       92.18160       16.55672
H         79.50916       94.07274       16.17427
H         80.19655       92.15437       15.50034
H         77.42355       95.07716       15.29348
H         78.51576       94.53927       13.96843
H         77.06212       93.55448       14.38277
N         78.70269       90.67136       17.84408
C         79.51632       89.70852       18.58588
C         81.00770       89.97748       18.43608
O         81.49356       90.97277       18.95461
C         79.15921       89.59750       20.09696
C         77.64018       89.60536       20.39612
C         79.83097       88.34447       20.70154
C         76.83606       88.48826       19.73039
H         78.05475       90.26047       17.15434
H         79.27735       88.71620       18.14058
H         79.57376       90.47470       20.62346
H         77.21520       90.58031       20.07437
H         77.49791       89.53507       21.49773
H         79.61845       88.26777       21.78784
H         79.47473       87.41899       20.20128
H         80.93174       88.38433       20.57544
H         76.89873       88.56334       18.62609
H         77.18701       87.48849       20.05543
H         75.76969       88.58934       20.02357
N         81.81032       89.08586       17.80049
C         83.26256       89.21996       17.76486
C         83.80425       89.38694       16.35799
O         85.01592       89.42041       16.23836
C         83.92120       88.02909       18.50475
C         83.62508       86.66797       17.87277
O         83.48612       88.00433       19.83918
H         81.37881       88.26096       17.35937
H         83.59256       90.13216       18.31061
H         85.03020       88.15940       18.47935
H         84.08313       88.61020       20.34848
H         83.96714       86.64332       16.81755
H         84.16411       85.87905       18.43813
H         82.54206       86.43307       17.91510
N         82.99370       89.53502       15.26557
C         83.47479       89.77270       13.89778
C         84.26741       91.07946       13.82564
O         83.70702       92.10778       13.47633
C         82.27799       89.77759       12.89910
C         81.62504       88.39514       12.79200
O         81.29690       90.70586       13.29805
H         81.97571       89.50282       15.41378
H         84.14815       88.94602       13.58022
H         82.65613       90.01850       11.87620
H         81.39295       91.51600       12.73400
H         82.36794       87.64724       12.44225
H         81.21515       88.06180       13.76811
H         80.79111       88.42855       12.05886
N         85.59162       91.09967       14.16910
C         86.42725       92.29218       14.28295
C         85.89467       93.22002       15.36038
O         84.73942       93.61669       15.30009
C         86.63648       93.01184       12.94252
C         87.13501       92.02812       11.87334
C         87.64613       92.75506       10.62927
C         88.00408       91.74721        9.52942
N         88.60215       92.41902        8.37769
H         86.05842       90.20757       14.37951
H         87.44283       91.95561       14.59513
H         87.40582       93.79804       13.11581
H         85.70956       93.50730       12.58399
H         86.29732       91.34683       11.60617
H         87.97431       91.41694       12.27496
H         88.54953       93.34041       10.91251
H         86.87240       93.45311       10.24358
H         87.07757       91.21762        9.21190
H         88.72211       90.99179        9.91994
H         87.95913       93.15816        8.01232
H         89.51466       92.84888        8.65520
H         88.77638       91.71480        7.62482
N         86.68961       93.61765       16.39209
C         86.16203       94.39919       17.50057
C         85.34114       93.48368       18.39962
O         84.14803       93.72417       18.50788
C         87.26511       95.19310       18.22675
C         87.90071       96.22661       17.28206
C         88.95850       97.02355       17.98566
O         90.04104       96.40677       18.49685
O         88.85047       98.23528       18.08524
H         87.68435       93.34628       16.39662
H         85.47878       95.18394       17.09805
H         88.06062       94.53063       18.60576
H         86.80773       95.73501       19.08476
H         87.11065       96.91303       16.90268
H         88.36632       95.71653       16.41219
N         85.83379       92.38311       19.04161
C         87.21026       91.94088       19.05780
H         87.84794       92.67167       19.58730
H         87.28582       90.99359       19.63378
H         87.57727       91.74300       18.03347
H         85.16753       91.79666       19.55472
Ca        81.69665       93.51848       20.80404
O         83.32935       95.14371       22.68671
H         82.39821       95.46072       22.58438
H         83.32494       94.65724       23.54653
O         83.11653       96.41442       19.69715
H         83.76783       96.59213       18.97300
H         83.59294       96.67577       20.52402
O         81.72087       95.04468       17.28433
H         82.63664       95.26066       16.97718
H         81.16572       95.78823       16.93963

Ca 1.0



