%chk=apoCaM-CA-Ng.loop1.water5.frame669.chk
%nprocshared=20
%mem=10GB
%nosave
#b3lyp/svp scf=(tight,noincore,xqc) Test 
#IOP(5/87=12) Density=Current Pop=(MK,readradii) iop(6/33=2) iop(6/42=6)

apoCaM-CA-Ng.loop1.water5.frame669 

   0  1 
C         -7.25022       21.96114       83.60448
C         -8.10890       22.05033       82.37647
O         -7.80927       22.83545       81.48880
H         -6.39837       22.67132       83.54816
H         -7.85362       22.19083       84.50655
H         -6.84533       20.92957       83.69385
N         -9.18954       21.23272       82.25483
C        -10.05134       21.18208       81.08046
C        -11.51204       21.45397       81.44419
O        -12.07253       20.76403       82.27607
C         -9.83168       19.86129       80.29614
C         -9.77570       18.52327       81.01481
O         -9.84793       18.38532       82.35556
O         -9.57676       17.52403       80.34264
H         -9.38538       20.58785       83.03137
H         -9.75799       21.97231       80.35450
H         -8.83871       19.95050       79.80215
H        -10.59336       19.81560       79.48641
N        -12.18874       22.47552       80.83853
C        -13.58459       22.83241       81.11409
C        -14.56078       21.71456       80.75148
O        -14.49525       21.18183       79.65323
C        -13.98315       24.11400       80.34241
C        -13.24092       25.35288       80.87456
C        -13.64017       26.63094       80.12746
C        -12.94430       27.85061       80.74926
N        -13.29132       29.08298       80.04431
H        -11.67771       23.04155       80.14442
H        -13.69662       23.06636       82.19318
H        -15.07138       24.29785       80.48828
H        -13.79524       23.97598       79.25478
H        -12.14163       25.21612       80.79192
H        -13.50338       25.48064       81.94467
H        -14.74132       26.77274       80.19010
H        -13.34872       26.53834       79.05849
H        -11.84493       27.70736       80.70022
H        -13.24494       27.94289       81.81798
H        -14.32523       29.23670       80.06976
H        -12.81762       29.88793       80.51544
H        -12.96241       29.03187       79.05294
N        -15.56265       21.38885       81.62326
C        -16.60470       20.38341       81.38565
C        -17.71901       20.54572       82.42135
O        -17.93764       19.64564       83.21987
C        -16.00842       18.95893       81.35962
C        -15.03109       18.69552       82.46764
O        -13.76227       18.47850       82.10056
O        -15.34504       18.72946       83.64673
H        -15.61679       21.92294       82.50205
H        -17.09034       20.53771       80.39878
H        -15.44536       18.85309       80.40746
H        -16.81139       18.19125       81.34557
N        -18.48824       21.67445       82.49043
C        -18.40590       22.80388       81.57376
C        -17.85619       24.04415       82.23250
O        -17.72667       25.04384       81.53929
H        -19.19237       21.73826       83.24258
H        -19.41568       23.00279       81.15682
H        -17.73909       22.59547       80.71611
N        -17.44318       24.04535       83.53409
C        -16.71702       25.15661       84.13473
C        -15.30825       24.69882       84.44596
O        -15.02991       23.50855       84.36748
C        -17.43728       25.72137       85.37564
C        -17.57016       24.73479       86.50745
O        -16.97519       24.98688       87.68872
O        -18.23604       23.72045       86.37688
H        -17.55105       23.19273       84.09860
H        -16.62658       25.98516       83.39799
H        -18.44917       26.07741       85.08534
H        -16.86322       26.60055       85.74070
N        -14.33234       25.59839       84.72560
C        -12.95539       25.15265       84.84275
C        -11.96436       26.27667       84.92972
O        -12.33337       27.43283       85.08771
H        -14.57112       26.60127       84.75524
H        -12.70419       24.59189       83.91639
H        -12.83093       24.46492       85.70654
N        -10.65044       25.98232       84.75414
C         -9.59814       26.98260       84.74538
C         -8.49929       26.60839       85.71628
O         -8.54435       25.55701       86.34188
C         -9.05538       27.17089       83.29896
C         -8.49787       25.88880       82.67116
O        -10.08090       27.65705       82.47644
H        -10.39131       25.00111       84.56391
H         -9.99318       27.96968       85.07288
H         -8.22120       27.90831       83.29478
H        -10.17219       28.62738       82.67042
H         -8.10264       26.11556       81.65765
H         -7.67097       25.47496       83.28386
H         -9.29196       25.12178       82.55797
N         -7.44720       27.44973       85.85877
C         -6.29616       27.17645       86.69970
C         -6.65541       27.42308       88.15291
O         -6.33926       26.59162       88.99214
C         -5.08651       28.03570       86.22398
C         -4.79090       27.84524       84.70119
C         -3.82695       27.72860       87.05243
C         -4.53030       26.40027       84.25523
H         -7.45467       28.32504       85.31590
H         -5.98049       26.11690       86.57821
H         -5.32764       29.11206       86.37315
H         -3.91493       28.46863       84.42187
H         -5.64237       28.22087       84.09733
H         -3.54086       26.65966       86.96820
H         -2.97920       28.35503       86.70204
H         -3.99660       27.96028       88.12408
H         -3.64826       25.97074       84.76966
H         -5.41555       25.75678       84.43844
H         -4.33693       26.38419       83.16190
N         -7.36227       28.53495       88.50845
C         -7.72700       28.86457       89.88505
C         -7.27386       30.29249       90.18373
O         -6.79004       30.95762       89.27626
C         -9.25948       28.69120       90.06985
C         -9.70537       27.26546       89.70606
O         -9.61352       28.94403       91.40480
H         -7.68801       29.16918       87.76226
H         -7.21341       28.17784       90.59374
H         -9.77998       29.41432       89.39966
H        -10.60085       29.04665       91.43097
H         -9.18702       26.52052       90.34730
H        -10.80093       27.15917       89.85360
H         -9.48798       27.04052       88.64149
N         -7.38620       30.83406       91.43291
C         -6.98526       32.20641       91.73346
C         -5.79288       32.19836       92.67519
O         -4.75552       32.73268       92.30799
C         -8.20021       33.05929       92.20783
C         -8.79701       32.68726       93.56863
O         -9.22493       32.97293       91.24968
H         -7.75422       30.25530       92.20026
H         -6.64381       32.71569       90.80448
H         -7.87650       34.12261       92.30366
H         -8.95728       33.54125       90.48132
H         -9.67443       33.33677       93.77630
H         -9.13523       31.63063       93.58616
H         -8.07117       32.87490       94.38508
N         -5.85474       31.58325       93.88927
C         -4.74381       31.51761       94.82928
C         -4.45432       30.06788       95.16874
O         -5.38976       29.30114       95.35864
C         -5.10616       32.30743       96.10250
C         -3.94788       32.30894       97.11689
C         -4.27696       33.13323       98.36285
C         -3.11276       33.07632       99.36294
N         -3.41637       33.84591      100.56780
H         -6.73407       31.12911       94.17288
H         -3.82869       31.99218       94.40934
H         -6.01775       31.87683       96.57226
H         -5.32544       33.35860       95.81044
H         -3.03652       32.72783       96.63480
H         -3.73632       31.26659       97.43711
H         -5.19199       32.72324       98.84307
H         -4.46578       34.18948       98.07039
H         -2.19185       33.48389       98.88872
H         -2.91932       32.01715       99.64660
H         -2.60779       33.77952      101.22752
H         -3.57313       34.85032      100.32252
H         -4.26739       33.45799      101.03603
N         -3.17427       29.64916       95.37930
C         -2.87360       28.29248       95.81940
C         -3.15482       27.28102       94.71586
O         -3.98531       26.41519       94.95188
C         -1.44158       28.14721       96.38755
C         -1.23636       29.02459       97.63567
C          0.11662       28.79309       98.24325
O          1.12900       29.03497       97.60563
O          0.21846       28.32411       99.50187
H         -2.41108       30.33879       95.30339
H         -3.53965       28.05512       96.68214
H         -0.66375       28.38602       95.63772
H         -1.30271       27.08582       96.69255
H         -2.01330       28.77428       98.39134
H         -1.33342       30.10058       97.37947
N         -2.54196       27.26973       93.49349
C         -1.56642       28.22536       93.00800
H         -0.61377       27.69819       92.79053
H         -1.94269       28.68282       92.06975
H         -1.36098       29.04895       93.70757
H         -2.79580       26.51492       92.83723
Ca       -11.88077       18.29899       83.26760
O        -10.22432       20.38319       85.58498
H        -10.15320       21.34133       85.34521
H         -9.30529       20.12257       85.84487
O         -9.87342       17.28952       85.50429
H         -9.06371       17.30635       84.93468
H         -9.83252       16.41733       85.97066
O        -11.75815       15.26498       83.06538
H        -11.64487       15.72900       82.19782
H        -10.86472       15.31216       83.48966
O        -13.30728       20.77274       85.32286
H        -14.23226       20.70382       85.66892
H        -12.83319       21.32508       85.99406
O        -12.99153       17.61969       86.25839
H        -13.77581       18.11351       86.60680
H        -12.87673       16.86169       86.88507

Ca 1.0



