%chk=apoCaM-CA-Ng.loop3.water3.frame835.chk
%nprocshared=20
%mem=10GB
%nosave
#b3lyp/svp scf=(tight,noincore,xqc) Test 
#IOP(5/87=12) Density=Current Pop=(MK,readradii) iop(6/33=2) iop(6/42=6)

apoCaM-CA-Ng.loop3.water3.frame835 

   0  1 
C         75.31616       89.07686       63.50742
C         76.32494       89.53718       62.51101
O         76.94982       88.70731       61.89967
H         74.38410       88.75946       62.99011
H         75.72474       88.23634       64.09892
H         75.07406       89.91771       64.18211
N         76.45822       90.86316       62.25887
C         77.22723       91.49642       61.18507
C         78.72496       91.61711       61.47785
O         79.08851       91.66960       62.64376
C         76.60087       92.89889       61.02159
C         76.79226       93.53876       59.69297
O         75.87011       94.39585       59.23039
O         77.72274       93.24232       58.97959
H         75.81516       91.46082       62.79141
H         77.05799       90.95926       60.24027
H         76.87329       93.55205       61.87980
H         75.49488       92.80416       61.07844
N         79.63654       91.77088       60.46024
C         81.07186       92.00096       60.65837
C         81.53966       93.42062       60.25277
O         82.66134       93.78424       60.57628
C         81.83966       90.83776       59.98880
C         83.31731       90.77273       60.41193
C         83.87052       89.36368       60.15171
C         85.39267       89.26669       60.40749
N         85.92966       87.92406       60.11165
H         79.30403       91.68926       59.49675
H         81.27297       91.95168       61.74373
H         81.75113       90.82341       58.87366
H         81.33592       89.91021       60.33865
H         83.40720       90.97224       61.50058
H         83.89700       91.55026       59.86816
H         83.65409       89.09036       59.09655
H         83.31991       88.66079       60.81837
H         85.63986       89.55240       61.45333
H         85.90582       90.01063       59.76027
H         85.29729       87.37093       59.49044
H         86.84680       88.02184       59.61634
H         86.09041       87.37295       60.98729
N         80.71214       94.28596       59.59912
C         80.97157       95.70289       59.30806
C         79.86907       96.62905       59.89059
O         80.11399       97.81313       60.06905
C         81.15278       95.90717       57.77435
C         79.95473       95.44209       56.95637
O         78.98244       96.14456       56.90774
O         79.82329       94.22866       56.40440
H         79.84045       93.89871       59.27686
H         81.91836       96.00324       59.80584
H         82.08046       95.39545       57.43613
H         81.30117       96.99485       57.58337
N         78.62889       96.14791       60.18023
C         77.51708       96.83663       60.80901
C         76.38119       97.20138       59.86124
O         75.31519       97.53994       60.35181
H         78.45348       95.18433       59.99392
H         77.85397       97.71786       61.38593
H         77.09649       96.12137       61.54879
N         76.53525       97.21597       58.50983
C         75.51873       97.70397       57.58735
C         75.18070       96.70544       56.51365
O         75.90874       95.75682       56.26477
C         76.01541       98.99114       56.89344
C         76.22538      100.08724       57.89875
N         75.15967      100.75478       58.39461
O         77.35439      100.38274       58.25977
H         77.42948       96.94919       58.13181
H         74.58669       97.94392       58.13234
H         75.28991       99.37232       56.13528
H         76.95882       98.75872       56.35042
H         74.20877      100.52545       58.06823
H         75.28613      101.51689       59.07603
N         74.06878       96.95305       55.77997
C         73.67922       96.25149       54.58220
C         73.39177       94.80187       54.83083
O         72.84453       94.45939       55.87073
H         73.46656       97.73496       56.07372
H         74.47110       96.37770       53.80748
H         72.75578       96.73589       54.21570
N         73.73429       93.88344       53.88906
C         73.57795       92.45705       54.10584
C         74.48207       91.95531       55.29196
O         75.21985       92.81584       56.16881
C         73.97927       91.63813       52.84486
C         73.26508       91.99182       51.55107
C         71.86412       92.05243       51.47917
C         74.01193       92.23891       50.38530
C         71.22533       92.37691       50.27616
C         73.37305       92.51362       49.16828
C         71.97474       92.57695       49.10766
O         71.35968       92.81885       47.93050
H         74.09985       94.22300       52.98580
H         72.50091       92.23950       54.31599
H         73.78199       90.56025       53.02537
H         75.07735       91.74657       52.71644
H         71.26451       91.86038       52.35587
H         75.09199       92.19283       50.41789
H         70.14589       92.46582       50.25439
H         73.96993       92.67621       48.27724
H         70.39368       92.81764       47.85022
N         74.22741       90.56268       55.70304
C         74.60528       89.95997       56.99536
C         76.11253       89.86327       57.09443
O         76.77904       90.88239       57.18854
C         74.01291       90.65974       58.26894
C         74.31004       89.90639       59.60305
C         72.51331       90.94858       58.21616
C         73.73595       88.50224       59.76476
H         73.45108       90.08039       55.18898
H         74.20168       88.92655       56.94203
H         74.50733       91.64756       58.34997
H         73.89980       90.50484       60.44899
H         75.39247       89.81585       59.73045
H         71.92440       90.01872       58.08426
H         72.23335       91.43871       59.17786
H         72.26509       91.66908       57.41559
H         74.01610       88.11429       60.76974
H         72.63042       88.52587       59.70284
H         74.16259       87.81049       59.01410
N         76.72488       88.65058       57.07896
C         78.18061       88.53519       57.20940
C         78.80882       87.26266       56.67602
O         80.03130       87.18880       56.67179
C         78.55646       88.67877       58.66923
O         77.95539       87.61957       59.34759
H         76.10900       87.83683       56.99112
H         78.63081       89.33005       56.59611
H         78.18798       89.65020       59.03297
H         79.65621       88.65340       58.82395
H         78.05427       87.84566       60.28731
N         78.07079       86.22296       56.21742
C         78.65023       85.01897       55.64853
C         79.33086       85.31182       54.29135
O         79.10086       86.38837       53.75283
C         77.50591       84.00828       55.50974
H         77.05692       86.24794       56.32196
H         79.40269       84.65280       56.38174
H         76.93634       84.24886       54.59443
H         77.86008       82.97325       55.50979
H         76.78694       84.08379       56.36082
N         80.22410       84.46288       53.68310
C         80.59956       83.14927       54.20646
C         80.68926       82.05706       53.12980
O         81.15581       82.34652       52.03709
C         81.90269       83.23739       55.01118
H         80.72673       84.82624       52.85362
H         79.85839       82.84396       54.93426
H         82.79258       83.52149       54.40926
H         81.76728       83.98646       55.81931
H         82.10531       82.25980       55.49969
N         80.35287       80.74456       53.36009
C         79.68834       80.24039       54.55750
C         78.18890       80.50560       54.45863
O         77.49189       80.42621       55.46181
C         79.99027       78.73814       54.70993
C         79.59044       78.19025       56.08088
C         79.93512       76.74188       56.15969
O         81.15355       76.37593       56.59661
O         79.16113       75.89915       55.73427
H         80.50664       80.06632       52.59651
H         80.11497       80.75654       55.44349
H         81.09020       78.58966       54.59900
H         79.50012       78.16632       53.89212
H         78.51384       78.32293       56.31460
H         80.18176       78.73050       56.85044
N         77.64366       80.88372       53.26437
C         76.29434       81.35850       53.09461
H         75.60713       80.99655       53.88328
H         76.33144       82.46769       53.10358
H         75.92310       81.05180       52.09355
H         78.23174       80.93751       52.42444
Ca        77.55223       93.54330       56.30439
O         76.93754       94.34403       53.80607
H         76.86757       95.29591       53.54889
H         77.14470       93.86205       52.96856
O         79.74888       91.58314       57.15678
H         80.28170       90.84981       56.77962
H         80.42752       92.28855       57.17684
O         78.12784       91.66321       54.69501
H         79.02438       91.58441       54.29020
H         77.58362       90.92762       54.32805

Ca 1.0



