%chk=apoCaM-CA-Ng.loop3.water2.frame523.chk
%nprocshared=20
%mem=10GB
%nosave
#b3lyp/svp scf=(tight,noincore,xqc) Test 
#IOP(5/87=12) Density=Current Pop=(MK,readradii) iop(6/33=2) iop(6/42=6)

apoCaM-CA-Ng.loop3.water2.frame523 

   0  1 
C         83.20495      -21.83717       58.96257
C         83.55189      -23.28576       58.86135
O         83.68674      -23.78677       57.75498
H         82.25239      -21.71792       59.51737
H         84.02026      -21.30970       59.50031
H         83.09752      -21.39243       57.95007
N         83.70564      -24.03025       59.99042
C         84.11478      -25.42128       59.96088
C         82.96982      -26.30077       60.41912
O         82.53850      -26.19805       61.55950
C         85.37097      -25.59458       60.83492
C         85.94989      -26.96932       60.76275
O         87.02374      -27.27500       61.51629
O         85.45200      -27.81682       60.03791
H         83.53382      -23.59018       60.90772
H         84.38249      -25.71333       58.92260
H         85.12040      -25.36839       61.89359
H         86.15804      -24.88635       60.49969
N         82.41153      -27.18080       59.54159
C         81.29402      -28.05262       59.87467
C         81.76101      -29.07518       60.90288
O         81.20928      -29.13518       61.99243
C         80.77316      -28.70546       58.56419
C         79.40759      -29.41237       58.62312
C         78.25035      -28.44620       58.94259
C         76.88604      -29.10561       58.68858
N         75.78954      -28.19307       59.01585
H         82.78197      -27.20657       58.57836
H         80.47769      -27.41880       60.28188
H         81.53276      -29.41387       58.17002
H         80.66109      -27.90205       57.80165
H         79.41989      -30.26214       59.33804
H         79.23355      -29.82150       57.60240
H         78.31835      -27.55193       58.28369
H         78.31873      -28.11690       60.00061
H         76.79011      -30.02956       59.29881
H         76.81346      -29.38570       57.61268
H         75.86340      -27.31546       58.45105
H         74.87915      -28.65818       58.79517
H         75.81115      -27.95952       60.03492
N         82.81840      -29.88943       60.61143
C         83.38072      -30.88419       61.52683
C         84.00715      -30.29916       62.78696
O         84.18755      -31.05413       63.73342
C         84.39470      -31.79708       60.77586
C         85.46129      -31.05824       59.96836
O         86.45174      -30.33981       60.54260
O         85.40721      -31.10232       58.75105
H         83.22390      -29.80877       59.66909
H         82.54066      -31.53263       61.86821
H         83.78431      -32.37622       60.04813
H         84.85908      -32.53618       61.46545
N         84.39525      -28.99495       62.88008
C         84.99331      -28.42317       64.08183
C         86.27781      -29.10108       64.54908
O         86.71141      -28.78908       65.64873
H         84.23884      -28.37357       62.08224
H         84.24615      -28.51317       64.89893
H         85.19619      -27.34042       63.92716
N         86.92696      -30.04249       63.80235
C         88.03151      -30.85673       64.29270
C         89.31287      -30.60921       63.52198
O         89.32648      -30.72812       62.30375
C         87.65003      -32.34607       64.15121
C         88.73836      -33.25901       64.66707
N         89.10309      -33.23367       65.96997
O         89.29788      -34.02577       63.89714
H         86.59468      -30.24369       62.85762
H         88.21354      -30.65164       65.36908
H         87.46271      -32.56982       63.07559
H         86.71337      -32.55456       64.70991
H         88.63717      -32.60121       66.63620
H         89.85105      -33.85264       66.31591
N         90.46529      -30.37367       64.21086
C         91.77302      -30.32722       63.59152
C         91.91316      -29.16413       62.65699
O         91.77227      -28.02752       63.08596
H         90.43289      -30.31083       65.23920
H         91.95781      -31.29062       63.06549
H         92.54919      -30.22679       64.37972
N         92.24282      -29.38344       61.35709
C         92.47156      -28.30822       60.40164
C         91.19844      -27.52154       60.13661
O         90.15586      -27.80733       60.70819
C         93.13123      -28.88797       59.12365
C         94.46561      -29.49676       59.49810
C         95.51913      -28.67484       59.93902
C         94.65346      -30.88787       59.45894
C         96.72899      -29.23653       60.35410
C         95.86167      -31.44820       59.88477
C         96.90114      -30.62380       60.34059
O         98.06271      -31.15224       60.77520
H         92.38416      -30.35837       61.05005
H         93.19486      -27.58748       60.84274
H         93.30531      -28.11733       58.34307
H         92.45992      -29.65888       58.69787
H         95.40046      -27.59867       59.97249
H         93.85526      -31.54084       59.12921
H         97.52761      -28.59263       60.70129
H         95.98347      -32.52362       59.87236
H         98.21078      -32.10789       60.81227
N         91.26088      -26.43916       59.32058
C         90.20658      -25.45209       59.11949
C         88.90189      -26.04470       58.48117
O         89.07871      -27.38130       58.08751
C         89.91124      -24.63573       60.42774
C         89.16805      -23.31559       60.07170
C         91.21969      -24.32663       61.19239
C         88.84049      -22.40754       61.25967
H         92.15762      -26.24100       58.85127
H         90.66105      -24.73350       58.39910
H         89.28124      -25.25012       61.10878
H         88.20531      -23.55729       59.57845
H         89.79242      -22.72560       59.36342
H         91.91126      -23.72054       60.57135
H         91.01687      -23.79988       62.14558
H         91.73543      -25.26100       61.49424
H         89.75875      -22.04335       61.76409
H         88.30368      -21.50767       60.88997
H         88.19453      -22.93763       61.98874
N         88.47877      -25.23237       57.31689
C         87.02510      -25.30800       57.06292
C         86.64116      -26.54512       56.25498
O         85.45450      -26.82033       56.13893
C         86.55480      -24.05481       56.28598
O         86.75428      -22.88736       57.04446
H         88.73198      -24.23759       57.49864
H         86.49120      -25.33299       58.03657
H         85.47507      -24.11952       56.04646
H         87.08542      -23.99136       55.30592
H         87.55511      -22.42571       56.67974
N         87.58027      -27.30689       55.62375
C         87.26537      -28.49019       54.82888
C         86.73840      -29.60763       55.71384
O         87.40990      -29.92798       56.68317
C         88.53461      -28.98524       54.12550
H         88.56668      -27.01490       55.67447
H         86.54511      -28.21119       54.03583
H         88.30710      -29.87074       53.49646
H         88.94080      -28.18330       53.47339
H         89.31300      -29.26525       54.86520
N         85.58270      -30.29383       55.47448
C         84.69188      -30.09891       54.33712
C         85.38870      -30.45754       53.02583
O         85.94133      -31.54786       52.96729
C         83.47316      -31.02554       54.46416
H         85.33100      -31.02971       56.15328
H         84.29346      -29.07492       54.38501
H         82.91831      -30.80826       55.40061
H         82.78545      -30.86750       53.60456
H         83.78454      -32.09346       54.47413
N         85.36510      -29.68935       51.89326
C         84.71621      -28.39292       51.73237
C         85.69687      -27.41579       51.11390
O         85.99139      -26.40159       51.73103
C         83.44048      -28.56050       50.88243
C         82.60659      -27.27007       50.83732
C         81.33328      -27.47355       50.06825
O         81.36862      -27.77208       48.88525
O         80.14331      -27.31694       50.68010
H         85.79889      -30.09978       51.05123
H         84.39043      -27.97800       52.69702
H         82.81319      -29.34840       51.35688
H         83.69544      -28.90003       49.85514
H         83.18597      -26.44795       50.36715
H         82.34994      -26.97123       51.87810
N         86.25077      -27.67058       49.89275
C         87.21158      -26.79994       49.24786
H         88.15653      -27.35969       49.08364
H         86.81205      -26.47691       48.26392
H         87.43904      -25.89712       49.85164
H         85.99131      -28.52999       49.38668
Ca        87.77989      -28.85670       59.34483
O         88.96716      -31.91379       59.09474
H         89.79182      -31.98622       59.63818
H         88.62638      -32.84113       59.03221
O         90.30666      -29.66399       57.53114
H         90.57363      -28.97159       56.87495
H         90.19657      -30.48768       56.99727

Ca 1.0



