%chk=apoCaM-CA-Ng.loop2.water3.frame548.chk
%nprocshared=20
%mem=10GB
%nosave
#b3lyp/svp scf=(tight,noincore,xqc) Test 
#IOP(5/87=12) Density=Current Pop=(MK,readradii) iop(6/33=2) iop(6/42=6)

apoCaM-CA-Ng.loop2.water3.frame548 

   -2  1 
C         65.25986       41.29599       70.09828
C         64.11669       42.22539       69.81724
O         64.16343       43.37577       70.22901
H         66.05177       41.80882       70.68485
H         64.89761       40.41882       70.67401
H         65.69763       40.94709       69.13902
N         63.04249       41.78314       69.10692
C         61.90690       42.63368       68.76854
C         62.36949       43.78023       67.89127
O         62.97045       43.52799       66.85563
C         60.82470       41.81209       68.03945
C         59.61007       42.64612       67.73288
O         59.24610       42.80123       66.57825
O         58.91751       43.22533       68.73274
H         63.04002       40.79897       68.79471
H         61.45553       43.02044       69.70985
H         60.50762       40.96688       68.68795
H         61.24271       41.38951       67.09854
N         62.10155       45.07211       68.23548
C         62.55134       46.19840       67.42330
C         64.07235       46.33245       67.50921
O         64.63838       45.80768       68.45825
C         61.86436       47.48503       67.90068
H         61.53780       45.25159       69.08104
H         62.22066       46.00891       66.38846
H         62.13621       48.36088       67.28482
H         60.76193       47.36089       67.83013
H         62.13172       47.70130       68.95623
N         64.83791       47.01866       66.60499
C         64.34905       47.65748       65.38355
C         63.77521       46.64936       64.39396
O         63.90842       45.44955       64.59293
C         65.46778       48.50975       64.73441
C         66.69601       47.71643       64.36855
O         67.87825       48.00925       64.94448
O         66.63403       46.81709       63.54628
H         65.84707       47.08301       66.81390
H         63.54284       48.36275       65.65622
H         65.76405       49.29734       65.46236
H         65.08601       49.02475       63.82774
N         63.07669       47.09149       63.31014
C         62.40043       46.22013       62.35565
C         61.26812       45.43181       62.99872
O         61.10978       45.49847       64.20723
H         62.98841       48.10882       63.16331
H         63.12844       45.53706       61.86866
H         61.95044       46.87257       61.57685
N         60.37200       44.69610       62.27682
C         60.33899       44.56948       60.82609
C         60.33966       43.10309       60.38819
O         60.19158       42.85588       59.20160
C         59.06964       45.26705       60.27886
C         59.04949       46.75948       60.53248
N         58.91948       47.26690       61.78139
O         59.12951       47.52457       59.58269
H         59.60574       44.24020       62.79967
H         61.21454       45.05726       60.34802
H         58.14937       44.80587       60.69857
H         59.05074       45.11854       59.17616
H         58.80959       46.65504       62.60089
H         58.90488       48.28679       61.93009
N         60.51670       42.07827       61.27460
C         60.50012       40.66983       60.90131
C         61.52435       40.34129       59.84303
O         61.17895       39.68959       58.86472
H         60.68807       42.28243       62.26804
H         59.48606       40.37597       60.55198
H         60.73383       40.06999       61.80750
N         62.80033       40.79562       59.95396
C         63.83938       40.55637       58.95734
C         65.17930       40.31214       59.62892
O         65.26571       40.35219       60.85301
C         63.91331       41.73904       57.95287
C         62.72829       41.72753       56.98290
O         63.95376       42.97008       58.62739
H         63.02049       41.41703       60.74965
H         63.62459       39.62571       58.38387
H         64.80232       41.64013       57.29208
H         64.87941       43.08480       58.96409
H         61.76437       41.84766       57.50845
H         62.83117       42.55279       56.24776
H         62.71063       40.76750       56.42032
N         66.27594       40.02779       58.87404
C         67.58521       39.72602       59.42854
C         68.56119       40.80513       58.99348
O         68.92703       40.85959       57.82554
C         68.00743       38.29771       58.96482
C         69.46482       37.89044       59.30675
C         67.00568       37.24831       59.48751
C         69.77027       37.73159       60.79157
H         66.18236       39.99956       57.84576
H         67.54295       39.73270       60.53925
H         67.95382       38.28488       57.85287
H         70.17145       38.62966       58.87294
H         69.67507       36.91369       58.81802
H         66.97956       37.23993       60.59802
H         65.97826       37.46871       59.13022
H         67.27916       36.23565       59.12409
H         69.62400       38.69080       61.32157
H         69.13909       36.94196       61.24445
H         70.82288       37.40595       60.91366
N         69.01635       41.70820       59.90643
C         70.04271       42.70777       59.65904
C         71.26249       42.46770       60.55164
O         72.23657       43.18952       60.39957
C         69.45699       44.12699       59.80140
C         68.87408       44.41072       61.15675
O         67.68827       44.67950       61.26681
O         69.65745       44.39779       62.25017
H         68.62451       41.68073       60.85250
H         70.40981       42.62279       58.61218
H         68.65877       44.24359       59.03493
H         70.24337       44.88162       59.58448
N         71.31878       41.41498       61.43117
C         72.56435       40.94930       62.01964
C         72.31430       40.40795       63.43514
O         72.50339       39.21841       63.65001
C         73.09210       39.87098       61.03929
C         74.49408       39.37865       61.27655
C         75.58078       40.26304       61.17207
C         74.73584       38.01796       61.53211
C         76.88864       39.79156       61.31680
C         76.04545       37.55140       61.67874
C         77.12108       38.43669       61.56805
H         70.52493       40.76930       61.50304
H         73.31581       41.76551       62.05803
H         73.09326       40.29619       60.01113
H         72.37716       39.02569       61.03118
H         75.41752       41.31156       60.95645
H         73.91405       37.31580       61.60318
H         77.72241       40.47497       61.22198
H         76.22674       36.50108       61.86655
H         78.13472       38.07179       61.67004
N         71.89303       41.20947       64.46822
C         71.71777       40.74319       65.84281
C         70.66125       39.67235       66.06442
O         70.60069       39.15281       67.17109
C         71.31366       42.00636       66.61038
C         72.04324       43.08105       65.83658
C         71.77752       42.64882       64.39483
H         72.71101       40.36683       66.17800
H         70.22452       42.19725       66.45899
H         71.51571       41.96893       67.70261
H         71.73904       44.12127       66.07396
H         73.13125       42.96973       66.04976
H         70.74081       42.89966       64.08632
H         72.52286       43.13144       63.72960
N         69.77253       39.30918       65.09491
C         68.79485       38.24284       65.29486
C         69.53664       36.93510       65.47871
O         69.35195       36.28827       66.50004
C         67.82160       38.11162       64.10137
C         66.72784       39.19143       64.02022
C         67.22563       40.58976       63.84537
O         66.83771       41.56307       64.68765
O         67.92969       40.87037       62.89625
H         69.80226       39.79190       64.18759
H         68.17860       38.44466       66.20052
H         67.26718       37.15282       64.20631
H         68.38781       38.06262       63.15491
H         66.08877       39.14464       64.92733
H         66.09081       38.95359       63.14063
N         70.40926       36.49875       64.52660
C         71.16391       35.26773       64.63758
H         72.24895       35.50249       64.63395
H         70.92917       34.70861       65.56763
H         70.93296       34.61689       63.76898
H         70.56272       37.07245       63.68399
Ca        67.32460       43.68648       64.09906
O         64.35041       42.96124       63.06335
H         64.69109       42.86232       62.13910
H         63.82930       42.13597       63.22908
O         69.15483       45.00910       65.96622
H         69.38926       45.91688       66.28168
H         69.55438       44.95236       65.06211
O         66.23098       44.10134       66.74677
H         65.50593       43.78002       66.15442
H         66.32898       43.38985       67.42703

Ca 1.0



