%chk=apoCaM-CA-Ng.loop2.water3.frame551.chk
%nprocshared=20
%mem=10GB
%nosave
#b3lyp/svp scf=(tight,noincore,xqc) Test 
#IOP(5/87=12) Density=Current Pop=(MK,readradii) iop(6/33=2) iop(6/42=6)

apoCaM-CA-Ng.loop2.water3.frame551 

   -2  1 
C         63.47587       41.12276       70.03661
C         62.12712       41.71937       69.76576
O         61.83980       42.79026       70.28127
H         64.08195       41.80092       70.67607
H         63.36082       40.15089       70.56101
H         64.01191       40.96401       69.07839
N         61.23619       41.07128       68.96124
C         59.90417       41.59897       68.68197
C         60.00779       42.93548       67.95245
O         60.34282       42.95439       66.78012
C         59.09252       40.57670       67.84905
C         57.67752       40.99945       67.54730
O         56.96808       40.27202       66.87127
O         57.17865       42.16358       68.00732
H         61.51455       40.16131       68.56053
H         59.39031       41.73416       69.66055
H         59.05170       39.61088       68.39966
H         59.61980       40.39776       66.88569
N         59.74854       44.09976       68.60988
C         59.82239       45.43068       67.99877
C         61.21382       45.70828       67.41695
O         62.17792       45.36798       68.08791
C         59.51191       46.48207       69.06952
H         59.49810       44.03218       69.60915
H         59.03748       45.48996       67.21850
H         59.48464       47.49624       68.62068
H         58.52301       46.27348       69.53253
H         60.28474       46.45818       69.86919
N         61.44857       46.29504       66.19548
C         60.44499       46.92680       65.34193
C         59.97363       46.03644       64.21331
O         60.58789       45.01956       63.93185
C         60.91235       48.32565       64.86410
C         62.24457       48.51543       64.14481
O         63.08300       47.54774       63.69852
O         62.57663       49.66775       63.91807
H         62.42994       46.36470       65.88937
H         59.53521       47.12030       65.94771
H         60.97921       48.95984       65.77371
H         60.12243       48.77041       64.21707
N         58.78143       46.31793       63.60846
C         58.14670       45.46651       62.61226
C         57.01138       44.68278       63.24845
O         56.85417       44.76358       64.45951
H         58.23699       47.13004       63.94250
H         58.86428       44.73352       62.19318
H         57.78580       46.11650       61.78746
N         56.16968       43.86970       62.54489
C         56.11178       43.75511       61.08951
C         57.03797       42.68070       60.54253
O         57.03549       42.48235       59.33409
C         54.65516       43.47621       60.66262
C         53.72961       44.56419       61.15395
N         52.76454       44.28902       62.06213
O         53.86218       45.70600       60.73812
H         55.44100       43.37720       63.08659
H         56.40165       44.72032       60.62027
H         54.34490       42.49322       61.07810
H         54.57271       43.42062       59.55467
H         52.64993       43.33671       62.43849
H         52.14040       45.03375       62.40567
N         57.90767       41.98877       61.33893
C         58.89215       41.05426       60.80737
C         59.94592       41.71543       59.91606
O         60.80383       41.00129       59.41808
H         57.90057       42.13348       62.35829
H         58.36625       40.25441       60.24017
H         59.42405       40.57224       61.65667
N         59.94235       43.05864       59.65733
C         60.88301       43.73773       58.76736
C         62.31798       43.64685       59.28318
O         62.61927       44.10940       60.37349
C         60.43643       45.20556       58.51124
C         59.28700       45.23246       57.48608
O         60.03993       45.81256       59.71517
H         59.21896       43.63776       60.08882
H         60.85158       43.22938       57.77964
H         61.28148       45.77649       58.06952
H         59.60231       46.67745       59.50056
H         58.96984       46.27817       57.28913
H         59.64250       44.80772       56.52160
H         58.41243       44.64677       57.83789
N         63.24178       43.00146       58.51164
C         64.61783       42.68215       58.89329
C         65.55009       43.89052       58.75992
O         65.75350       44.36317       57.65048
C         65.12540       41.52161       57.96395
C         66.61704       41.14813       58.14031
C         64.24353       40.25962       58.09255
C         66.99088       40.58673       59.51110
H         62.90336       42.62036       57.61713
H         64.61840       42.30258       59.93941
H         65.03491       41.87673       56.91194
H         67.23634       42.03961       57.92920
H         66.88381       40.39073       57.37104
H         63.18894       40.45698       57.81581
H         64.61001       39.46915       57.40393
H         64.24790       39.86955       59.13055
H         66.43855       39.64918       59.72247
H         68.07595       40.35104       59.52157
H         66.78108       41.32374       60.30746
N         66.18725       44.40674       59.85150
C         67.20924       45.45169       59.80841
C         68.46796       45.11200       60.63436
O         69.34468       45.96457       60.68203
C         66.58887       46.81754       60.16673
C         65.74293       46.80747       61.39859
O         64.55701       47.07858       61.31036
O         66.27456       46.51740       62.59658
H         65.90922       44.06936       60.77391
H         67.58265       45.58821       58.76878
H         65.93448       47.11521       59.31722
H         67.37827       47.59525       60.25643
N         68.69514       43.88160       61.20709
C         69.97890       43.51465       61.82002
C         69.80954       42.85130       63.20063
O         70.23734       41.71300       63.35563
C         70.76105       42.54726       60.88575
C         71.07410       43.07930       59.50619
C         70.05837       43.22697       58.54885
C         72.39909       43.38338       59.14455
C         70.35629       43.66733       57.25684
C         72.69458       43.83210       57.85328
C         71.67437       43.97052       56.90888
H         67.99652       43.13717       61.10230
H         70.62640       44.40876       61.95375
H         70.21146       41.58691       60.76742
H         71.72345       42.31560       61.39542
H         69.04012       42.98216       58.79803
H         73.20494       43.27340       59.85946
H         69.56584       43.76525       56.52387
H         73.71626       44.06516       57.58275
H         71.90591       44.30742       55.90680
N         69.24533       43.47991       64.27890
C         69.15993       42.87962       65.60962
C         68.41897       41.55776       65.65792
O         68.49995       40.87207       66.66835
C         68.36117       43.90274       66.42075
C         68.73907       45.20494       65.75259
C         68.74067       44.82830       64.27043
H         70.20378       42.75570       65.97646
H         67.27761       43.75441       66.21668
H         68.51462       43.84934       67.52040
H         68.09430       46.07176       66.00836
H         69.78647       45.42952       66.05426
H         67.72757       44.79701       63.82646
H         69.38801       45.54100       63.71983
N         67.60415       41.18117       64.63370
C         66.86334       39.93966       64.63636
C         67.84685       38.82998       64.33574
O         68.04909       37.95406       65.16484
C         65.69860       39.92117       63.61110
C         64.62443       41.02318       63.76435
C         64.84323       42.32620       63.04249
O         63.76347       43.11864       62.86818
O         65.90030       42.60305       62.51193
H         67.50933       41.80244       63.83437
H         66.39255       39.80507       65.63785
H         65.17399       38.96032       63.81316
H         66.03334       39.89125       62.55363
H         64.39629       41.22414       64.83450
H         63.70599       40.62252       63.29248
N         68.53474       38.84608       63.15812
C         69.56502       37.88574       62.83732
H         70.39303       37.97176       63.57275
H         69.15467       36.85528       62.84789
H         69.97409       38.10145       61.82615
H         68.34232       39.58906       62.46866
Ca        63.39962       45.33363       63.26988
O         65.19720       44.95281       65.45592
H         65.47344       45.73378       65.99501
H         65.63351       45.09144       64.58081
O         62.72621       43.48273       65.17656
H         62.88090       43.76269       66.10899
H         62.13582       42.69243       65.21463
O         61.72535       47.38264       61.40096
H         60.89508       47.91779       61.35160
H         61.42575       46.45301       61.55964

Ca 1.0



