%chk=apoCaM-CA-Ng.loop2.water4.frame84.chk
%nprocshared=20
%mem=10GB
%nosave
#b3lyp/svp scf=(tight,noincore,xqc) Test 
#IOP(5/87=12) Density=Current Pop=(MK,readradii) iop(6/33=2) iop(6/42=6)

apoCaM-CA-Ng.loop2.water4.frame84 

   -2  1 
C         44.26335       44.15096      113.92461
C         44.69685       43.29486      115.07954
O         45.60779       43.68434      115.79546
H         43.91180       45.13529      114.29678
H         45.11998       44.30410      113.23516
H         43.43800       43.67381      113.35393
N         44.08843       42.09944      115.31157
C         44.46154       41.18872      116.38696
C         44.96858       39.86602      115.82467
O         45.18275       38.95188      116.60789
C         43.24003       40.94722      117.29594
C         42.73527       42.22712      117.90153
O         41.59088       42.59573      117.69117
O         43.53961       42.96846      118.68758
H         43.32163       41.80417      114.68650
H         45.27578       41.61143      117.01751
H         43.52192       40.26550      118.12823
H         42.42905       40.46219      116.70870
N         45.20435       39.69170      114.48625
C         45.66688       38.44808      113.88345
C         47.02161       38.03075      114.43549
O         47.14068       36.93724      114.97253
C         44.59214       37.35722      114.03286
H         45.05922       40.47578      113.83516
H         45.79707       38.61755      112.79132
H         44.40628       37.10576      115.09751
H         43.63832       37.70724      113.58318
H         44.90784       36.43316      113.50403
N         48.09839       38.87145      114.33774
C         49.44033       38.53820      114.82294
C         49.51090       38.33214      116.32845
O         50.57812       37.97306      116.80884
C         50.03491       37.34164      114.03586
C         50.44138       37.72812      112.63770
O         50.97992       36.90392      111.91672
O         50.34143       39.00599      112.22174
H         47.96603       39.79222      113.89231
H         50.11979       39.40238      114.65109
H         49.34470       36.47433      114.02346
H         50.97699       37.01065      114.52340
N         48.46616       38.61986      117.15482
C         48.57000       38.53570      118.59700
C         49.59894       39.51985      119.08517
O         50.57793       39.11214      119.69338
H         47.58122       38.96126      116.77071
H         48.82867       37.49623      118.89406
H         47.59226       38.79671      119.05822
N         49.42450       40.85048      118.84877
C         50.37969       41.86587      119.28481
C         49.79468       43.26777      119.21784
O         48.81370       43.49489      118.52186
C         51.71544       41.75492      118.50187
C         51.54599       41.75328      116.99406
N         51.07199       42.82882      116.32319
O         51.86151       40.75356      116.36600
H         48.55613       41.13725      118.37190
H         50.57002       41.69369      120.36703
H         52.19778       40.79432      118.78080
H         52.41515       42.56419      118.80147
H         50.82144       43.69983      116.80847
H         50.96932       42.79113      115.29834
N         50.32699       44.25164      120.00084
C         49.80002       45.60733      120.04632
C         50.86787       46.62291      119.74085
O         52.02783       46.26238      119.58926
H         51.11799       44.02044      120.62175
H         49.39194       45.81649      121.05759
H         48.97789       45.73648      119.31023
N         50.51810       47.93066      119.57692
C         51.46533       48.96142      119.16690
C         51.20102       49.27836      117.70511
O         51.02974       50.42772      117.32947
C         51.41798       50.18487      120.12720
C         50.04882       50.89057      120.20970
O         51.83798       49.80644      121.41487
H         49.51972       48.17846      119.64607
H         52.50416       48.56471      119.19496
H         52.15000       50.93278      119.75224
H         51.14543       49.20616      121.79762
H         49.26881       50.21695      120.61985
H         50.12624       51.76965      120.88375
H         49.71287       51.25512      119.21908
N         51.18424       48.24122      116.81889
C         50.87708       48.34140      115.38873
C         51.37319       47.09234      114.65029
O         51.81208       46.14442      115.28953
C         49.33543       48.50092      115.13961
C         48.55353       47.31508      115.77872
C         48.78732       49.85404      115.62268
C         47.04924       47.33238      115.50667
H         51.41521       47.31652      117.20460
H         51.45381       49.18957      114.95881
H         49.17477       48.48796      114.03934
H         48.70759       47.30909      116.88045
H         48.94413       46.35721      115.37419
H         47.74650       50.00322      115.27180
H         48.76790       49.91604      116.72862
H         49.39026       50.68477      115.19872
H         46.85431       47.32189      114.41413
H         46.58553       46.43158      115.96161
H         46.56699       48.21931      115.96555
N         51.36272       47.02803      113.28409
C         51.84174       45.83548      112.59088
C         52.20286       46.13738      111.14034
O         51.74496       45.45384      110.23572
C         50.79500       44.69745      112.74544
C         51.26666       43.33535      112.30560
O         52.40712       43.15405      111.90957
O         50.42100       42.29042      112.38529
H         51.06885       47.85441      112.74161
H         52.80081       45.53266      113.06890
H         49.87973       44.97564      112.17879
H         50.50421       44.59492      113.81010
N         53.07708       47.14744      110.86398
C         53.62771       47.41421      109.53638
C         52.54170       47.59674      108.48433
O         51.70525       48.46898      108.65826
C         54.56610       48.64150      109.59141
C         55.19226       48.95514      108.25099
C         56.50127       48.53662      107.96181
C         54.47266       49.67364      107.27732
C         57.07323       48.82012      106.71736
C         55.05082       49.96187      106.03895
C         56.34929       49.53274      105.75752
H         53.40584       47.72544      111.65345
H         54.25972       46.54318      109.27812
H         55.36705       48.40314      110.32570
H         54.04056       49.54563      109.97052
H         57.07333       47.97973      108.69300
H         53.46753       50.02095      107.47736
H         58.07850       48.48661      106.49671
H         54.49143       50.51905      105.29823
H         56.79462       49.75433      104.79649
N         52.51388       46.83604      107.34029
C         51.51301       46.94202      106.28707
C         50.08637       46.81037      106.78142
O         49.25660       47.63035      106.41445
C         51.84694       45.76655      105.35372
C         53.34676       45.69965      105.47228
C         53.53848       45.87238      106.97393
H         51.65942       47.90824      105.75240
H         51.46325       44.81041      105.77811
H         51.45444       45.87439      104.31994
H         53.82733       44.79363      105.04569
H         53.76123       46.59856      104.95819
H         53.36560       44.93140      107.54062
H         54.57458       46.24568      107.12228
N         49.72933       45.78608      107.61095
C         48.35208       45.54230      108.04167
C         47.74446       46.67955      108.86179
O         46.55371       46.60765      109.13433
C         48.25079       44.23740      108.86594
C         48.66319       42.98921      108.07013
C         48.46636       41.74899      108.89081
O         49.51209       40.95049      109.16112
O         47.35719       41.44922      109.30352
H         50.46904       45.13474      107.91042
H         47.73093       45.42465      107.12558
H         47.19191       44.10047      109.17887
H         48.87720       44.32419      109.78255
H         49.72946       43.05116      107.76870
H         48.04417       42.90682      107.15198
N         48.47281       47.74755      109.29330
C         47.91156       48.85042      110.04692
H         46.82458       48.72900      110.23589
H         48.43327       48.93132      111.02311
H         48.06228       49.79311      109.47943
H         49.47416       47.79692      109.09385
Ca        51.60834       39.71225      110.49945
O         52.67688       42.42042      108.85826
H         51.96317       42.92769      109.31858
H         52.38459       42.39322      107.91316
O         54.66751       40.64432      110.86316
H         55.13510       40.73626      109.99528
H         55.03013       39.80948      111.25318
O         52.42925       39.01053      107.78423
H         51.67385       39.62332      107.59788
H         53.21061       39.60806      107.89840
O         53.07076       39.58693      113.43668
H         53.54272       39.34003      114.27101
H         52.61811       40.44180      113.64823

Ca 1.0



