%chk=apoCaM-CA-Ng.loop2.water3.frame959.chk
%nprocshared=20
%mem=10GB
%nosave
#b3lyp/svp scf=(tight,noincore,xqc) Test 
#IOP(5/87=12) Density=Current Pop=(MK,readradii) iop(6/33=2) iop(6/42=6)

apoCaM-CA-Ng.loop2.water3.frame959 

   -2  1 
C         55.51558       96.02495       30.92746
C         54.50039       96.56974       31.88415
O         53.33383       96.64056       31.52032
H         56.49389       95.88867       31.43080
H         55.18195       95.03703       30.54259
H         55.63748       96.72527       30.07604
N         54.87010       96.95043       33.14347
C         53.92025       97.43853       34.12995
C         53.74543       96.36645       35.19462
O         53.91835       96.62525       36.37780
C         54.40704       98.79187       34.70806
C         53.33494       99.56485       35.43645
O         52.16301       99.22337       35.38834
O         53.66738      100.68337       36.10769
H         55.85878       96.86753       33.42241
H         52.93117       97.58965       33.64473
H         54.78026       99.45026       33.89535
H         55.26210       98.59758       35.39407
N         53.36877       95.11459       34.80965
C         53.09793       94.02784       35.74140
C         54.37566       93.48010       36.35681
O         55.22010       93.01357       35.60370
C         52.38884       92.88948       35.00799
H         53.21649       94.94728       33.80315
H         52.38718       94.40242       36.49711
H         53.01896       92.50635       34.17531
H         52.16919       92.06140       35.71388
H         51.43157       93.26457       34.58873
N         54.63332       93.47602       37.69606
C         53.77991       94.06638       38.72451
C         54.56361       94.39673       39.97159
O         55.64584       93.87914       40.18426
C         52.53215       93.22006       39.08482
C         52.72387       91.78003       39.43300
O         51.62860       91.07091       39.74952
O         53.80648       91.22892       39.38044
H         55.55450       93.10517       37.97527
H         53.43616       95.05725       38.36275
H         51.82292       93.20634       38.24331
H         52.03182       93.68784       39.96055
N         54.05680       95.30865       40.83888
C         54.70926       95.70871       42.06728
C         53.80949       95.38839       43.22770
O         53.22764       96.31492       43.77138
H         53.16440       95.77244       40.60265
H         54.85623       96.80954       42.01065
H         55.70360       95.24415       42.21111
N         53.58221       94.12390       43.68129
C         54.26904       92.90726       43.25614
C         55.68804       92.93083       43.81313
O         55.84614       93.02733       45.02299
C         53.46260       91.71890       43.82084
C         53.89582       90.33660       43.44932
N         53.25963       89.28798       44.01816
O         54.78409       90.14792       42.63795
H         52.88453       94.03194       44.43668
H         54.25861       92.81622       42.15010
H         52.41587       91.81119       43.45530
H         53.45926       91.79497       44.92799
H         52.51123       89.44916       44.70814
H         53.50336       88.31923       43.77867
N         56.76808       92.85352       42.98803
C         58.14494       92.92261       43.44753
C         58.75622       91.55139       43.62586
O         59.89973       91.47091       44.05197
H         56.61743       92.70519       41.98861
H         58.20381       93.47983       44.40557
H         58.73596       93.49559       42.69890
N         58.04528       90.42688       43.33743
C         58.54583       89.07552       43.47574
C         58.54259       88.38848       42.08252
O         57.32498       88.46137       41.40056
C         57.80773       88.34885       44.64424
C         58.23540       88.91966       45.99956
O         56.41859       88.49935       44.56530
H         57.08783       90.51530       42.99014
H         59.61747       89.07140       43.74920
H         58.10569       87.27348       44.65725
H         56.08344       87.71151       44.09397
H         57.81347       89.93826       46.13592
H         57.86562       88.27363       46.82667
H         59.34199       88.96626       46.06901
N         59.10588       87.03574       42.13106
C         59.15994       86.17816       40.93195
C         58.24954       85.02127       41.27520
O         58.50084       84.33898       42.26073
C         60.61806       85.68741       40.67609
C         60.72789       84.62540       39.53906
C         61.57305       86.88437       40.46323
C         60.78707       85.18811       38.12139
H         59.78660       86.82646       42.89604
H         58.79346       86.71289       40.02232
H         60.94055       85.16460       41.60217
H         59.89447       83.89185       39.60992
H         61.66522       84.04649       39.68506
H         62.61716       86.53904       40.30987
H         61.25794       87.49418       39.58774
H         61.56969       87.55833       41.34484
H         61.69778       85.81489       38.01165
H         60.88299       84.34743       37.40141
H         59.88503       85.78342       37.87924
N         57.13044       84.78580       40.54632
C         56.08090       83.88265       40.98094
C         55.26382       83.39188       39.80266
O         54.05233       83.25471       39.92661
C         55.22076       84.58892       42.05009
C         54.69379       85.91584       41.58467
O         54.00822       86.02035       40.58082
O         54.96867       87.00425       42.30422
H         56.95242       85.36193       39.72249
H         56.52904       82.96660       41.42499
H         55.85381       84.76574       42.94659
H         54.36175       83.95882       42.35121
N         55.89007       82.99346       38.65722
C         55.17442       82.31949       37.58491
C         55.65050       82.77434       36.20112
O         56.84994       82.94258       36.01833
C         55.39393       80.78629       37.72707
C         54.35783       80.02235       36.93683
C         54.66197       79.50807       35.66640
C         53.04133       79.89925       37.43239
C         53.65742       78.92330       34.88531
C         52.04749       79.29219       36.65592
C         52.35220       78.82027       35.37657
H         56.91697       83.06903       38.60378
H         54.09018       82.51353       37.70387
H         55.30048       80.46212       38.78626
H         56.42600       80.53493       37.39937
H         55.66164       79.60473       35.26503
H         52.77959       80.29349       38.40714
H         53.88554       78.56743       33.88934
H         51.03604       79.20939       37.03533
H         51.57522       78.38160       34.76257
N         54.78751       82.85317       35.13647
C         55.19585       83.01546       33.75155
C         55.54943       84.45945       33.42196
O         55.79589       84.74263       32.25765
C         54.00190       82.42685       32.97953
C         52.80773       82.78250       33.83666
C         53.35489       82.69133       35.25097
H         56.07205       82.37736       33.48814
H         53.90664       82.70212       31.90684
H         54.09955       81.31655       33.02809
H         52.54835       83.83378       33.61626
H         51.91912       82.12631       33.68201
H         52.90932       83.47589       35.89819
H         53.12626       81.71038       35.65357
N         55.68287       85.40932       34.39963
C         56.15494       86.76777       34.13960
C         57.55557       86.80145       33.55069
O         57.97100       87.86094       33.10028
C         56.12035       87.61322       35.42130
C         57.03153       87.10271       36.55019
C         56.66171       87.88174       37.76361
O         56.07930       87.26114       38.79029
O         56.75473       89.09805       37.77670
H         55.46160       85.16041       35.36891
H         55.44856       87.22701       33.41507
H         55.06904       87.62389       35.78474
H         56.41348       88.66335       35.19494
H         58.10584       87.22836       36.29307
H         56.86758       86.02480       36.76796
N         58.34127       85.68705       33.52992
C         59.64631       85.63032       32.91744
H         60.39557       85.34591       33.68394
H         59.62365       84.84965       32.12808
H         59.94090       86.59370       32.45326
H         58.01516       84.81585       33.96657
Ca        55.33053       88.62448       40.34572
O         52.27242       88.41455       41.33916
H         51.62683       88.58574       42.06782
H         52.42739       89.30591       40.95324
O         56.75727       90.96363       40.32047
H         57.45913       91.17425       39.66238
H         55.98068       91.47038       39.99705
O         53.49057       88.65586       38.11685
H         52.54263       88.37953       38.06058
H         53.66357       89.15185       37.27787

Ca 1.0



