%chk=apoCaM-CA-Ng.loop2.water4.frame616.chk
%nprocshared=20
%mem=10GB
%nosave
#b3lyp/svp scf=(tight,noincore,xqc) Test 
#IOP(5/87=12) Density=Current Pop=(MK,readradii) iop(6/33=2) iop(6/42=6)

apoCaM-CA-Ng.loop2.water4.frame616 

   -2  1 
C         70.42506       30.09184       91.91508
C         70.96085       31.03359       92.95114
O         70.30823       32.02455       93.24903
H         69.44133       30.44347       91.53529
H         71.13470       30.03133       91.06389
H         70.29489       29.08281       92.35887
N         72.16264       30.78589       93.54767
C         72.73355       31.67230       94.56008
C         71.83192       31.73037       95.78145
O         71.01044       30.83974       95.95826
C         74.14653       31.18520       94.94796
C         74.84561       32.09714       95.91585
O         75.21856       31.63774       97.12565
O         75.08857       33.25300       95.60732
H         72.68878       29.94778       93.25404
H         72.80468       32.68674       94.10749
H         74.77253       31.11533       94.03226
H         74.06773       30.16754       95.39111
N         71.90099       32.77988       96.65364
C         71.00206       32.89054       97.80022
C         69.54785       32.98152       97.31154
O         69.36342       33.16162       96.11465
C         71.39751       34.10303       98.65248
H         72.59530       33.52287       96.48481
H         71.16549       31.98381       98.40377
H         72.46255       34.00933       98.95503
H         71.27064       35.04273       98.07486
H         70.81115       34.17220       99.58320
N         68.43666       32.85133       98.09800
C         68.37660       32.64563       99.54506
C         69.09330       31.38556      100.03589
O         69.53107       30.56420       99.24206
C         66.89659       32.62072       99.99519
C         66.12077       31.47694       99.39665
O         64.96240       31.29695       99.73614
O         66.69987       30.61012       98.53994
H         67.53457       32.92999       97.59970
H         68.84463       33.51762      100.03592
H         66.40112       33.57452       99.71246
H         66.84449       32.53264      101.10095
N         69.25454       31.19565      101.37721
C         70.03069       30.11790      101.97693
C         71.51178       30.26396      101.66960
O         71.86697       31.10798      100.86063
H         68.83998       31.88178      102.02566
H         69.64878       29.12279      101.66607
H         69.91150       30.20846      103.07493
N         72.47852       29.53325      102.29789
C         72.27240       28.54971      103.35442
C         72.86418       27.19621      102.98592
O         72.95050       26.34420      103.85560
C         72.90408       29.08701      104.65671
C         72.15218       30.28925      105.17325
N         70.86244       30.17214      105.57403
O         72.71369       31.37137      105.24675
H         73.45982       29.73309      102.04234
H         71.19768       28.36039      103.55376
H         73.97130       29.34003      104.46932
H         72.86810       28.31853      105.45861
H         70.37712       29.26322      105.53753
H         70.34538       30.98874      105.93131
N         73.20517       26.88771      101.70138
C         73.59545       25.54856      101.28515
C         72.50370       24.54967      101.60736
O         72.80062       23.49289      102.15175
H         73.11066       27.59377      100.95888
H         74.55833       25.24937      101.75428
H         73.73856       25.55945      100.18294
N         71.20007       24.85943      101.36114
C         70.06801       23.99059      101.66871
C         69.14930       23.87368      100.46479
O         69.42119       24.48820       99.43543
C         69.29909       24.53717      102.89900
C         70.10895       24.37474      104.18581
O         68.98249       25.89509      102.71315
H         70.99056       25.79770      100.98076
H         70.41284       22.96008      101.91373
H         68.37781       23.93266      103.06497
H         67.99420       25.97248      102.68285
H         71.05898       24.92720      104.12991
H         69.52983       24.75649      105.05247
H         70.33679       23.30093      104.36149
N         68.04469       23.07791      100.51314
C         67.13961       22.88621       99.38947
C         65.72928       23.30655       99.76474
O         65.16375       22.78679      100.72001
C         67.15503       21.40647       98.91404
C         66.17184       21.21418       97.72071
C         68.58906       21.00477       98.51631
C         66.04571       19.76887       97.24425
H         67.84583       22.54912      101.37879
H         67.47319       23.49368       98.51780
H         66.82657       20.75887       99.75772
H         66.47846       21.85630       96.86597
H         65.14941       21.52225       98.02629
H         68.94558       21.62780       97.66718
H         69.28619       21.13643       99.36972
H         68.64395       19.93671       98.22982
H         67.00144       19.39138       96.83125
H         65.71510       19.11909       98.08194
H         65.28700       19.71700       96.43511
N         65.07034       24.17117       98.95426
C         63.66588       24.51857       99.04809
C         62.91875       23.89071       97.89268
O         61.87119       23.31403       98.14275
C         63.48684       26.04174       99.05593
C         64.06366       26.60680      100.31800
O         63.66082       26.21713      101.40210
O         65.00544       27.55530      100.28306
H         65.58059       24.55466       98.15592
H         63.20723       24.11908       99.98212
H         62.40316       26.28789       99.03913
H         63.95792       26.49722       98.15542
N         63.39718       23.93459       96.60877
C         62.69184       23.31675       95.49010
C         63.41678       23.63609       94.17164
O         63.86244       22.71828       93.49411
C         62.54392       21.77707       95.69786
C         61.28273       21.27096       95.04097
C         61.27982       20.72995       93.74657
C         60.06915       21.36237       95.75034
C         60.07788       20.29316       93.17325
C         58.87637       20.91929       95.17863
C         58.87917       20.38686       93.88897
H         64.27616       24.43302       96.41788
H         61.67370       23.76316       95.46799
H         62.44017       21.50243       96.76518
H         63.45568       21.21240       95.40634
H         62.19780       20.65356       93.17992
H         60.04734       21.77632       96.75129
H         60.07279       19.88280       92.17246
H         57.95104       20.99242       95.73664
H         57.95133       20.04865       93.44608
N         63.58868       24.92288       93.73469
C         64.23055       25.28670       92.47390
C         65.68569       24.86634       92.28658
O         66.18920       25.05828       91.18787
C         64.16138       26.81837       92.46782
C         62.87719       27.07666       93.22006
C         62.98593       26.07779       94.36735
H         63.60948       24.84299       91.66330
H         64.98227       27.22344       93.10552
H         64.23400       27.28229       91.46127
H         62.71164       28.12699       93.53876
H         62.03693       26.76452       92.55774
H         63.65996       26.43175       95.17402
H         61.96470       25.89357       94.76077
N         66.44387       24.33993       93.29326
C         67.83556       23.93519       93.08877
C         67.87408       22.75694       92.14118
O         68.49026       22.85949       91.08896
C         68.54102       23.55560       94.41631
C         68.94117       24.76589       95.28295
C         67.78852       25.62075       95.69996
O         67.74049       26.91757       95.34537
O         66.89112       25.14810       96.36747
H         66.02544       24.23028       94.22523
H         68.41450       24.77581       92.64111
H         69.50246       23.05018       94.17176
H         67.92249       22.83444       94.99323
H         69.66181       25.39397       94.71608
H         69.45632       24.39485       96.19628
N         67.23047       21.59933       92.45145
C         67.24765       20.45367       91.57041
H         66.80226       20.72395       90.58937
H         68.29240       20.10682       91.42122
H         66.65632       19.62631       92.01597
H         66.70872       21.52857       93.33816
Ca        65.65258       28.65804       98.45556
O         68.14495       27.60991       99.88533
H         68.99067       27.10528       99.97916
H         67.75260       27.60704      100.79390
O         69.96169       27.88691       97.36386
H         70.55953       27.19462       97.74316
H         70.36280       28.10832       96.48629
O         64.68319       28.94387       95.51597
H         65.24856       28.14244       95.65097
H         65.01311       29.33821       94.67021
O         67.95823       29.91847       95.20546
H         67.78504       30.45938       94.39460
H         68.37084       30.55190       95.84374

Ca 1.0



