%chk=apoCaM-CA-Ng.loop1.water3.frame1402.chk
%nprocshared=20
%mem=10GB
%nosave
#b3lyp/svp scf=(tight,noincore,xqc) Test 
#IOP(5/87=12) Density=Current Pop=(MK,readradii) iop(6/33=2) iop(6/42=6)

apoCaM-CA-Ng.loop1.water3.frame1402 

   0  1 
C         39.62629       85.50569       81.72986
C         38.26177       85.90877       81.25050
O         37.45005       85.02933       81.00115
H         40.27774       86.38906       81.89501
H         39.54046       84.93920       82.68009
H         40.10661       84.85749       80.96531
N         37.94549       87.22587       81.07536
C         36.67090       87.67969       80.52158
C         36.93494       88.36542       79.19263
O         36.54814       89.50277       78.96417
C         35.89265       88.53870       81.53853
C         36.55436       89.82934       81.95725
O         37.63368       90.17618       81.50373
O         35.92908       90.62444       82.84442
H         38.66194       87.93266       81.29506
H         36.02584       86.80489       80.29569
H         35.72204       87.92284       82.44802
H         34.90013       88.78382       81.10201
N         37.62139       87.66460       78.26031
C         38.06474       88.16447       76.96782
C         37.19132       87.66548       75.81882
O         36.81967       88.50989       75.01546
C         39.55591       87.82397       76.76432
C         40.41554       88.52965       77.82764
C         41.88994       88.12599       77.74943
C         42.70113       88.88143       78.81344
N         44.09352       88.43787       78.83216
H         37.93086       86.73298       78.55239
H         37.99446       89.27675       76.94243
H         39.88899       88.16522       75.75875
H         39.70135       86.72419       76.82094
H         40.04827       88.26504       78.84266
H         40.31912       89.63005       77.69196
H         42.30013       88.35209       76.74086
H         41.96854       87.03192       77.93271
H         42.25609       88.70657       79.81866
H         42.66149       89.97346       78.59989
H         44.61556       88.98688       79.55312
H         44.13902       87.42377       79.08489
H         44.53705       88.59179       77.89807
N         36.75835       86.38032       75.63074
C         36.91044       85.26710       76.56156
C         35.70385       85.22676       77.51038
O         34.80463       86.04590       77.36636
C         37.11399       83.95404       75.79083
C         35.94920       83.62488       74.91741
O         34.73635       83.43762       75.45737
O         36.09330       83.53972       73.71005
H         36.10882       86.23769       74.84042
H         37.84953       85.35446       77.11832
H         37.27610       83.11789       76.50195
H         38.02971       84.04597       75.16516
N         35.62230       84.31039       78.51731
C         34.49333       84.23390       79.44380
C         33.20054       83.80860       78.77066
O         33.18677       83.59303       77.57118
H         36.40550       83.65608       78.65889
H         34.34573       85.21712       79.93865
H         34.72907       83.49181       80.23307
N         32.05966       83.64186       79.50540
C         30.77690       83.27443       78.89104
C         29.73800       82.95223       79.97582
O         29.72090       83.65872       80.97341
C         30.27702       84.43879       77.99821
C         29.22201       84.00707       77.02157
O         29.49077       83.17943       76.16322
O         27.99165       84.55066       77.05847
H         32.12393       83.77106       80.52634
H         30.96047       82.38738       78.25654
H         31.09822       84.83658       77.37619
H         29.91361       85.27175       78.63811
N         28.80015       81.95703       79.88373
C         28.55641       81.11448       78.72623
C         29.66566       80.14910       78.41307
O         30.62450       80.03998       79.16691
H         28.14502       81.84538       80.67432
H         28.34687       81.75104       77.85275
H         27.63925       80.50955       78.89901
N         29.57658       79.39363       77.28272
C         30.58675       78.40886       76.90490
C         31.93148       79.08542       76.66089
O         31.97960       80.29691       76.51477
C         30.13453       77.60647       75.65237
C         28.83133       76.83515       75.89961
O         31.11772       76.67322       75.28207
H         28.74833       79.52635       76.68186
H         30.70059       77.70525       77.75930
H         29.94352       78.31769       74.81253
H         31.63562       77.07075       74.53369
H         28.54875       76.27591       74.98250
H         28.96488       76.11023       76.73038
H         27.98800       77.50978       76.15051
N         33.07637       78.33522       76.67304
C         34.43783       78.84971       76.52298
C         34.66785       79.38224       75.12859
O         34.01706       80.34277       74.74756
C         34.79346       79.93311       77.59024
C         34.53154       79.39460       79.01737
C         36.26266       80.38053       77.42183
C         34.70439       80.45415       80.10489
H         32.98752       77.32448       76.85075
H         35.13036       77.99163       76.68080
H         34.15330       80.82688       77.43211
H         35.19806       78.53032       79.22578
H         33.47930       79.04696       79.08997
H         36.43930       80.78705       76.40493
H         36.52579       81.19395       78.12398
H         36.95197       79.52438       77.58147
H         34.00807       81.29545       79.91514
H         34.45803       80.01425       81.09291
H         35.74468       80.83246       80.15453
N         35.61765       78.83260       74.32052
C         35.95402       79.38440       73.01734
C         35.53253       78.48898       71.87508
O         35.74130       78.89447       70.74480
C         37.45050       79.77705       72.93470
C         38.41422       78.59811       73.08193
O         37.74241       80.72543       73.92940
H         36.12999       77.99965       74.64988
H         35.38606       80.31577       72.85214
H         37.64025       80.21554       71.92347
H         37.77564       81.61421       73.48914
H         39.45734       78.96283       72.96599
H         38.32530       78.13101       74.08350
H         38.22220       77.83466       72.29952
N         34.89088       77.29348       72.07110
C         34.36994       76.52656       70.94266
C         33.29379       77.36497       70.25836
O         32.19794       77.46279       70.78787
C         33.82458       75.13357       71.37944
C         34.92383       74.23397       71.97330
O         32.74011       75.25125       72.27230
H         34.74627       76.94698       73.02597
H         35.21093       76.34572       70.23683
H         33.44992       74.61170       70.47222
H         33.09230       75.43685       73.18133
H         35.35940       74.67833       72.89324
H         34.49644       73.24291       72.23737
H         35.73765       74.08098       71.23409
N         33.59610       78.09631       69.13914
C         32.70699       79.06042       68.48483
C         32.28365       80.19153       69.41398
O         31.67852       79.93860       70.44477
C         31.49664       78.37997       67.83310
C         31.96658       77.45113       66.70576
C         30.78970       76.87554       65.92074
C         31.29949       76.02723       64.74898
N         30.18683       75.48588       63.97276
H         34.54246       78.00438       68.74111
H         33.27695       79.53158       67.65236
H         30.86242       79.17524       67.38099
H         30.88555       77.82882       68.57915
H         32.58264       76.62586       67.12541
H         32.59522       78.03982       65.99992
H         30.17544       77.71130       65.51799
H         30.15901       76.25689       66.59502
H         31.92278       75.19086       65.13639
H         31.93357       76.65726       64.08428
H         29.60746       76.26589       63.58519
H         30.56823       74.92120       63.17990
H         29.59548       74.87079       64.57712
N         32.53920       81.49018       69.07701
C         32.21942       82.61607       69.94952
C         33.10482       82.60280       71.20883
O         32.50161       81.79476       72.17133
C         32.32614       83.97868       69.23296
C         31.23113       84.14024       68.17328
C         31.31633       85.49228       67.52806
O         31.49121       85.58782       66.32430
O         31.19209       86.60753       68.27393
H         32.97969       81.68929       68.16620
H         31.15692       82.55715       70.28078
H         33.31351       84.13134       68.76158
H         32.18080       84.77992       69.99314
H         30.23258       84.04360       68.65339
H         31.33133       83.34571       67.40335
N         34.49414       82.15449       71.00194
C         35.28638       83.01192       70.12271
H         36.36049       82.74028       70.21581
H         35.02006       82.82747       69.06411
H         35.17311       84.08379       70.39626
H         34.95069       82.22094       71.93606
Ca        33.12271       82.79889       74.07536
O         30.67270       84.56772       73.07756
H         30.95956       85.50681       72.95140
H         29.68728       84.59530       72.98709
O         30.01621       81.19197       73.74249
H         29.83105       81.75620       72.95000
H         30.33054       80.33234       73.36513
O         32.26001       86.14976       75.26418
H         31.96364       86.69619       76.03469
H         32.79458       85.42058       75.66566

Ca 1.0



