%chk=apoCaM-CA-Ng.loop3.water3.frame232.chk
%nprocshared=20
%mem=10GB
%nosave
#b3lyp/svp scf=(tight,noincore,xqc) Test 
#IOP(5/87=12) Density=Current Pop=(MK,readradii) iop(6/33=2) iop(6/42=6)

apoCaM-CA-Ng.loop3.water3.frame232 

   0  1 
C         45.30484       46.95459       81.96074
C         45.85253       47.70351       80.78450
O         45.07750       48.05970       79.91087
H         44.20486       46.82087       81.86031
H         45.77597       45.95119       82.01566
H         45.51193       47.51734       82.89346
N         47.19465       47.96152       80.68818
C         47.83012       48.66591       79.56757
C         47.69292       47.90475       78.24541
O         48.03848       48.45180       77.20713
C         47.26377       50.10364       79.43597
C         47.43524       50.93694       80.68121
O         47.02808       52.08723       80.69141
O         48.03326       50.44122       81.78285
H         47.80585       47.64058       81.45435
H         48.91992       48.76261       79.76888
H         46.18592       50.07606       79.17777
H         47.78939       50.62665       78.60799
N         47.17912       46.64126       78.20842
C         46.86458       45.90532       76.98181
C         45.78872       46.59325       76.13058
O         45.51894       46.11281       75.03736
C         46.44950       44.44632       77.33356
C         45.24122       44.32106       78.29841
C         45.00453       42.85764       78.70709
C         44.03234       42.71200       79.89486
N         42.69853       43.23782       79.60887
H         47.02157       46.17458       79.10387
H         47.79031       45.84911       76.36723
H         47.32744       43.97131       77.82480
H         46.24129       43.87782       76.40074
H         44.32918       44.75189       77.83432
H         45.43524       44.86942       79.23753
H         45.96921       42.42157       79.04975
H         44.65155       42.27251       77.83122
H         44.45114       43.23595       80.78438
H         43.95187       41.63209       80.15072
H         42.29550       42.76150       78.77063
H         42.08265       43.05456       80.43429
H         42.73682       44.27083       79.45656
N         45.13723       47.71190       76.56064
C         44.11046       48.43445       75.82688
C         44.55496       49.88430       75.66464
O         44.94978       50.49810       76.64838
C         42.80419       48.33295       76.64069
C         41.60476       48.98857       76.00858
O         40.42017       48.93584       76.64528
O         41.68073       49.55743       74.93144
H         45.34288       48.08609       77.49100
H         43.92389       47.97634       74.82907
H         42.96010       48.77674       77.64773
H         42.56287       47.25474       76.76998
N         44.50475       50.50267       74.44987
C         44.96191       51.86709       74.20762
C         44.22410       52.97590       74.95248
O         44.60686       54.12077       74.75718
H         44.15975       49.96976       73.63651
H         44.86601       52.08189       73.12071
H         46.04088       51.92876       74.46846
N         43.20454       52.74583       75.83273
C         42.55847       53.81208       76.60342
C         41.80411       53.22619       77.79246
O         41.14346       52.20494       77.65856
C         41.69913       54.76262       75.73348
C         40.46841       54.11386       75.10448
N         39.76516       55.06062       74.24719
O         40.85865       53.02953       74.34033
H         42.90932       51.77903       76.00839
H         43.36591       54.44549       77.03462
H         42.32873       55.19056       74.92450
H         41.35273       55.60717       76.36715
H         39.40181       55.84695       74.82971
H         38.94141       54.57098       73.82743
N         41.93539       53.80637       79.01765
C         41.47016       53.22382       80.26501
C         39.99278       52.92198       80.31296
O         39.18858       53.81639       80.09295
H         42.45540       54.69455       79.08888
H         41.69510       53.93933       81.08572
H         42.05159       52.29933       80.46429
N         39.57048       51.67790       80.69035
C         38.16992       51.36687       80.95237
C         37.45642       50.90721       79.70045
O         38.08083       50.73035       78.66322
C         38.04468       50.23320       82.00478
C         38.75243       50.51802       83.30466
C         39.70271       49.60713       83.79777
C         38.45679       51.67141       84.04945
C         40.34570       49.84600       85.01436
C         39.10995       51.91395       85.26104
C         40.05537       50.99969       85.74868
O         40.68679       51.21714       86.91946
H         40.28269       50.97676       80.94677
H         37.66441       52.27271       81.35290
H         38.43463       49.28689       81.56582
H         36.97457       50.06612       82.24833
H         39.93837       48.70358       83.24848
H         37.72441       52.38455       83.69441
H         41.06842       49.13092       85.38700
H         38.87680       52.81020       85.82132
H         40.51524       52.00299       87.45740
N         36.12188       50.64168       79.76839
C         35.35197       50.03495       78.69427
C         34.34038       51.01393       78.13781
O         34.26243       51.09251       76.92468
C         34.76725       48.65527       79.11724
C         33.82239       48.74563       80.34345
C         35.93532       47.67610       79.36757
C         33.18222       47.40778       80.72284
H         35.63203       50.85317       80.64814
H         36.02058       49.80748       77.83632
H         34.18742       48.26002       78.25276
H         33.00013       49.45351       80.11111
H         34.37101       49.11852       81.23336
H         35.57451       46.64519       79.55106
H         36.58992       47.62092       78.47116
H         36.55069       48.00235       80.23237
H         32.61032       46.99369       79.86635
H         33.94439       46.67111       81.04977
H         32.48925       47.56088       81.57649
N         33.63540       51.88896       78.91496
C         32.88626       52.99352       78.31312
C         31.69409       52.55802       77.47401
O         31.20991       53.38912       76.71980
C         32.44817       54.01646       79.36918
O         33.57911       54.53387       80.02296
H         33.73563       51.85092       79.93978
H         33.58893       53.52077       77.62661
H         31.74259       53.53261       80.08512
H         31.91351       54.86340       78.88663
H         33.46533       54.37064       80.99460
N         31.17788       51.29147       77.52344
C         30.08474       50.81581       76.67028
C         30.49362       50.69316       75.20192
O         29.64828       50.32542       74.39497
C         28.81383       51.66736       76.85236
H         31.56850       50.61743       78.19680
H         29.81851       49.78642       76.99722
H         28.93854       52.70740       76.49220
H         27.97078       51.22217       76.28185
H         28.52574       51.69233       77.92479
N         31.77627       50.91766       74.78858
C         32.24809       50.76658       73.42204
C         33.28667       49.65060       73.32267
O         33.64899       49.05044       74.32687
C         32.83715       52.10406       72.95612
H         32.48323       51.19311       75.47005
H         31.40433       50.49808       72.74887
H         33.69730       52.39075       73.59976
H         33.18461       52.05093       71.90419
H         32.06531       52.90021       73.02304
N         33.77242       49.30523       72.09765
C         34.70530       48.22365       71.77977
C         34.18313       46.80403       72.02211
O         34.87625       45.88463       71.60244
C         36.07486       48.31540       72.48411
C         36.92852       49.57320       72.25741
C         38.36761       49.16124       72.48381
O         38.85050       48.29754       71.76838
O         39.14624       49.66377       73.44956
H         33.43750       49.85044       71.28806
H         34.89042       48.29095       70.68317
H         36.63947       47.46062       72.05191
H         35.99083       48.12142       73.57335
H         36.58950       50.38993       72.93253
H         36.84951       49.92297       71.20684
N         33.03639       46.51406       72.69771
C         32.63663       45.14982       72.99590
H         31.63634       44.94942       72.56511
H         33.34591       44.39331       72.59415
H         32.59897       45.01383       74.09742
H         32.42966       47.26116       73.05302
Ca        39.11405       51.61713       74.47229
O         37.98101       53.67238       77.32010
H         37.78632       54.20664       76.50984
H         38.96082       53.73994       77.42888
O         37.46606       48.66812       75.90163
H         37.81207       47.83838       75.48717
H         36.48152       48.57565       75.85592
O         36.27772       51.81515       75.26790
H         36.30085       52.50683       74.56178
H         36.20496       52.33057       76.10883

Ca 1.0



