%chk=apoCaM-CA-Ng.loop2.water4.frame1051.chk
%nprocshared=20
%mem=10GB
%nosave
#b3lyp/svp scf=(tight,noincore,xqc) Test 
#IOP(5/87=12) Density=Current Pop=(MK,readradii) iop(6/33=2) iop(6/42=6)

apoCaM-CA-Ng.loop2.water4.frame1051 

   -2  1 
C         25.83320       73.36889       66.85803
C         25.76067       74.59504       65.99235
O         25.52409       74.45001       64.80170
H         25.05445       73.42491       67.64763
H         25.64943       72.45381       66.25462
H         26.83792       73.28676       67.32093
N         25.92797       75.85654       66.48377
C         26.21335       76.19349       67.87480
C         27.55343       76.94281       67.93258
O         28.50386       76.45947       67.33363
C         24.96020       76.92329       68.44945
C         24.60493       78.17319       67.67706
O         23.58180       78.18921       66.80875
O         25.31614       79.15918       67.72969
H         25.82730       76.63775       65.82503
H         26.35071       75.27168       68.47377
H         25.06583       77.15121       69.53047
H         24.11010       76.21356       68.34532
N         27.71140       78.11610       68.61317
C         28.91843       78.93691       68.62981
C         29.32190       79.41813       67.23241
O         30.49014       79.33630       66.87844
C         30.05576       78.22992       69.38071
H         26.93321       78.47887       69.17474
H         28.67367       79.85138       69.21632
H         30.38134       77.31205       68.85000
H         30.92732       78.91112       69.48372
H         29.71455       77.95069       70.40078
N         28.38857       79.94607       66.38776
C         28.68596       80.52453       65.07559
C         28.02702       81.88706       64.95674
O         26.85819       82.01555       65.29656
C         28.22519       79.60129       63.91683
C         26.76388       79.25801       63.93540
O         26.42596       78.09596       64.06662
O         25.81497       80.20879       63.86803
H         27.40462       79.93079       66.68663
H         29.78255       80.63351       64.92458
H         28.81060       78.65704       63.98303
H         28.47118       80.07734       62.94373
N         28.68970       82.95142       64.42609
C         28.00461       84.20976       64.17652
C         26.93213       84.09393       63.09576
O         26.17639       85.04230       62.93974
H         29.68394       82.86437       64.16854
H         28.72946       84.98681       63.85488
H         27.54250       84.54910       65.13027
N         26.82000       82.99349       62.28629
C         25.78891       82.85819       61.25387
C         24.39641       82.75017       61.86229
O         24.25918       82.75900       63.07757
C         26.07899       81.63467       60.35212
C         27.32592       81.83611       59.52527
N         28.35427       80.95992       59.58331
O         27.39220       82.79176       58.76558
H         27.51102       82.23608       62.37485
H         25.79949       83.76416       60.60828
H         25.25630       81.49131       59.62335
H         26.14537       80.71445       60.97278
H         28.31474       80.13528       60.19843
H         29.18880       81.10069       58.99399
N         23.30047       82.66731       61.05410
C         21.94891       82.67514       61.58101
C         20.93076       82.55632       60.46611
O         20.47256       83.59241       60.00675
H         23.42819       82.64312       60.03145
H         21.79353       83.64455       62.10487
H         21.79232       81.89634       62.34905
N         20.45888       81.36428       59.98750
C         20.82805       80.03629       60.46937
C         21.26664       79.15927       59.30862
O         20.51096       78.99345       58.36082
C         19.61408       79.42117       61.21074
C         19.88088       77.99005       61.69543
O         19.30087       80.21077       62.33074
H         19.72544       81.40541       59.26151
H         21.66178       80.09020       61.18928
H         18.73241       79.36821       60.53058
H         18.77855       80.98994       62.00634
H         19.00163       77.61469       62.26012
H         20.06174       77.30743       60.84041
H         20.76197       77.94672       62.35986
N         22.47897       78.53453       59.34342
C         22.96148       77.66003       58.27769
C         22.05589       76.43970       58.14697
O         21.96131       75.70350       59.11972
C         24.42291       77.17578       58.55958
C         25.43587       78.34239       58.71227
C         24.91135       76.18809       57.47555
C         25.50796       79.28540       57.50890
H         23.07488       78.68596       60.16984
H         22.99964       78.24023       57.34752
H         24.43345       76.61579       59.52242
H         26.44598       77.91357       58.89238
H         25.18703       78.94793       59.60469
H         25.93725       75.83746       57.71512
H         24.27067       75.28283       57.43796
H         24.90412       76.64889       56.46695
H         26.29692       80.04322       57.67909
H         25.75521       78.73289       56.58567
H         24.55110       79.82643       57.36529
N         21.41021       76.07629       56.99702
C         21.32688       76.82829       55.74558
C         22.16000       76.13691       54.67323
O         22.18176       74.91458       54.63949
C         19.83475       76.91487       55.34974
C         19.52029       77.82492       54.18804
O         18.24058       77.96237       53.79363
O         20.38950       78.46526       53.61995
H         20.92000       75.16644       57.01193
H         21.66931       77.87024       55.85607
H         19.26529       77.30910       56.21947
H         19.45602       75.89440       55.12271
N         22.87437       76.86848       53.76442
C         23.72640       76.29029       52.72268
C         24.26940       77.40152       51.81744
O         23.45059       78.11125       51.24356
C         22.95820       75.31537       51.78462
C         23.92280       74.70994       50.78522
C         23.99244       75.20290       49.47038
C         24.79603       73.68012       51.17809
C         24.92888       74.68401       48.57093
C         25.71886       73.15181       50.26940
C         25.78943       73.65779       48.96891
H         22.81469       77.89671       53.82274
H         24.53719       75.72283       53.22350
H         22.15938       75.88507       51.26020
H         22.45016       74.48454       52.31227
H         23.34375       76.00854       49.15084
H         24.76042       73.28682       52.18651
H         24.99217       75.08270       47.56672
H         26.38542       72.35565       50.57542
H         26.51322       73.25739       48.27059
N         25.59756       77.57740       51.54326
C         26.69998       76.82187       52.11414
C         27.01883       77.31176       53.52029
O         26.28981       78.13131       54.05945
C         27.82606       77.05106       51.09925
C         27.57569       78.47290       50.65383
C         26.05933       78.49906       50.52185
H         26.50946       75.72847       52.13984
H         28.85262       76.82480       51.45557
H         27.62272       76.40233       50.21462
H         27.85616       79.13142       51.49467
H         28.12595       78.79957       49.74625
H         25.68341       79.53566       50.66100
H         25.73383       78.10400       49.53319
N         28.08204       76.78692       54.19137
C         28.36619       77.04952       55.60111
C         29.42823       76.06931       56.10769
O         30.46373       76.50116       56.59306
C         28.71624       78.53977       55.90822
C         29.93660       79.14251       55.18690
C         29.65789       79.44176       53.74802
O         30.32747       78.92948       52.86587
O         28.69473       80.32878       53.43134
H         28.66065       76.09003       53.69784
H         27.45444       76.82243       56.18950
H         28.90698       78.59851       57.00275
H         27.84629       79.19833       55.71409
H         30.82799       78.49336       55.29030
H         30.17717       80.11597       55.66657
N         29.26225       74.71364       56.05631
C         28.08596       74.02101       55.56305
H         27.27035       74.69604       55.24522
H         28.37192       73.38339       54.70024
H         27.68141       73.37306       56.36756
H         30.03000       74.11790       56.40332
Ca        24.13019       79.71840       65.25770
O         21.66058       80.79221       67.07199
H         21.31954       79.86270       67.05644
H         21.58734       81.06761       68.02016
O         24.72292       82.39883       67.97206
H         24.15544       82.86130       68.63899
H         25.46214       83.03292       67.79303
O         22.06049       79.67836       63.57651
H         21.39165       80.08150       64.18328
H         22.19549       78.76072       63.92293
O         22.97530       83.53883       65.64234
H         23.41230       84.25658       65.11863
H         22.25857       84.00136       66.14446

Ca 1.0



