%chk=apoCaM-CA-Ng.loop1.water3.frame1492.chk
%nprocshared=20
%mem=10GB
%nosave
#b3lyp/svp scf=(tight,noincore,xqc) Test 
#IOP(5/87=12) Density=Current Pop=(MK,readradii) iop(6/33=2) iop(6/42=6)

apoCaM-CA-Ng.loop1.water3.frame1492 

   0  1 
C         28.57637       58.71784       35.28103
C         29.36905       57.96095       34.26151
O         30.58591       58.02777       34.32064
H         27.49687       58.47300       35.21784
H         28.94427       58.44222       36.29252
H         28.71681       59.80967       35.13518
N         28.75395       57.23088       33.28474
C         29.49062       56.43064       32.30805
C         29.48151       57.06402       30.92749
O         30.20830       56.57576       30.07198
C         28.87100       55.02173       32.21140
C         28.68777       54.37914       33.55486
O         27.50352       54.48871       34.18941
O         29.59730       53.75425       34.07380
H         27.72381       57.24455       33.22909
H         30.55536       56.35142       32.62132
H         29.46123       54.35587       31.54314
H         27.86155       55.12011       31.75367
N         28.66262       58.11459       30.61306
C         28.63538       58.72857       29.29463
C         28.61892       60.26296       29.39107
O         27.87299       60.87084       28.63267
C         27.34927       58.25702       28.57259
C         27.22518       56.73255       28.46476
C         25.90407       56.35946       27.77933
C         25.64473       54.84511       27.72552
N         26.77013       54.10051       27.15879
H         27.98211       58.46007       31.30294
H         29.51379       58.41020       28.68862
H         27.31698       58.68934       27.54716
H         26.47329       58.63495       29.14640
H         27.24158       56.27631       29.47589
H         28.08306       56.34519       27.87297
H         25.91340       56.77177       26.74745
H         25.05211       56.82089       28.32844
H         24.73526       54.68317       27.10456
H         25.43297       54.45703       28.74657
H         26.46554       53.12056       26.96091
H         27.10314       54.54417       26.27286
H         27.55042       54.06053       27.85481
N         29.34066       61.01221       30.27906
C         30.27521       60.53005       31.29586
C         31.44867       59.78099       30.69474
O         31.71208       59.90016       29.50732
C         30.76278       61.66986       32.22520
C         31.22867       62.92531       31.51845
O         32.51697       63.32432       31.50699
O         30.38444       63.73525       31.17053
H         29.15338       62.02044       30.23162
H         29.73717       59.82641       31.96178
H         31.53914       61.28654       32.91891
H         29.90709       61.98396       32.86780
N         32.12932       58.88340       31.46522
C         33.14588       57.99265       30.93551
C         34.45252       58.68272       30.67658
O         34.64107       59.79776       31.13047
H         31.83868       58.74724       32.43957
H         32.75716       57.51304       30.01337
H         33.36294       57.19084       31.67391
N         35.41583       58.04796       29.94753
C         36.74126       58.60678       29.68075
C         37.80803       57.52030       29.74700
O         37.50538       56.38120       29.42272
C         36.78010       59.29309       28.29835
C         35.81240       60.42996       28.31946
O         35.94945       61.35372       29.29662
O         34.85459       60.43876       27.56505
H         35.16977       57.14212       29.52296
H         36.95597       59.38516       30.43688
H         36.53336       58.56443       27.49620
H         37.78670       59.70815       28.08824
N         39.11078       57.78173       30.06315
C         39.60651       59.09152       30.43886
C         39.07559       59.54986       31.77408
O         38.45589       58.78359       32.50072
H         39.79487       57.01249       30.00113
H         39.32967       59.82540       29.65756
H         40.71585       59.08168       30.49883
N         39.28402       60.83991       32.13871
C         38.81719       61.41669       33.39573
C         37.29379       61.31522       33.55284
O         36.59315       61.14394       32.56804
C         39.38664       62.85018       33.55976
C         38.91892       63.83085       32.47227
O         40.79046       62.76259       33.50910
H         39.82537       61.42089       31.48309
H         39.25871       60.79873       34.20893
H         39.06696       63.24785       34.55115
H         41.15792       63.40369       34.17069
H         37.83036       64.00077       32.55244
H         39.44200       64.80354       32.59192
H         39.14673       63.47163       31.44744
N         36.75009       61.28597       34.80856
C         35.36067       60.96361       35.16687
C         34.35991       61.96216       34.60081
O         34.14247       61.97808       33.39944
C         34.98679       59.48829       34.80215
C         36.00612       58.50681       35.44155
C         33.55406       59.14586       35.27337
C         35.77630       57.03999       35.07047
H         37.39393       61.42636       35.60166
H         35.30458       61.02640       36.27649
H         35.02324       59.37547       33.69851
H         35.97613       58.60515       36.54947
H         37.03057       58.76644       35.10175
H         33.24856       58.14269       34.91337
H         33.49204       59.16037       36.38312
H         32.80598       59.85639       34.86765
H         34.80175       56.66910       35.44665
H         35.82359       56.91206       33.96862
H         36.56604       56.41537       35.53854
N         33.68527       62.80112       35.44365
C         32.66085       63.75918       35.01748
C         33.06867       65.20371       35.25163
O         32.39575       66.08675       34.73527
C         31.32647       63.49640       35.75915
C         31.44162       63.70951       37.28231
O         30.89871       62.18550       35.50077
H         33.91726       62.74690       36.44310
H         32.48922       63.65288       33.93124
H         30.57270       64.22427       35.36916
H         29.90591       62.20673       35.47250
H         30.46934       63.50285       37.77193
H         32.19403       63.03574       37.73855
H         31.72429       64.75910       37.51461
N         34.09446       65.52869       36.08648
C         34.43416       66.90583       36.40876
C         35.08823       67.55093       35.19454
O         36.19813       67.18015       34.84423
C         35.31325       66.94951       37.68458
C         34.51303       66.49425       38.91967
O         36.42846       66.10493       37.52518
H         34.60444       64.77790       36.56572
H         33.49440       67.45156       36.65558
H         35.62796       68.00255       37.87126
H         37.24256       66.62820       37.73441
H         34.11905       65.46153       38.80086
H         35.15735       66.51592       39.82349
H         33.65184       67.17559       39.09449
N         34.39406       68.47209       34.46249
C         34.81672       69.07264       33.19704
C         35.08470       68.06395       32.09555
O         35.99387       67.25770       32.21220
C         36.03396       69.99611       33.29223
C         35.74565       71.27467       34.08161
C         36.72900       72.36498       33.64278
C         36.38504       73.72424       34.25544
N         36.93695       74.80113       33.43343
H         33.45144       68.73363       34.79126
H         33.97353       69.71246       32.85011
H         36.22315       70.30261       32.23633
H         36.95029       69.48611       33.65781
H         35.75026       71.08294       35.17567
H         34.73615       71.64511       33.79298
H         36.61542       72.46156       32.54012
H         37.78723       72.09148       33.85411
H         36.76999       73.77013       35.29803
H         35.28169       73.86280       34.28491
H         36.74934       75.71990       33.89275
H         37.96392       74.67493       33.28743
H         36.45277       74.79830       32.50336
N         34.36923       68.13563       30.93915
C         34.62294       67.30891       29.77097
C         33.73969       66.07695       29.77207
O         34.30479       65.00439       29.64975
C         34.47467       68.11665       28.46930
C         35.50821       69.24834       28.37515
C         35.33690       70.01346       27.09537
O         35.00647       71.31820       27.13002
O         35.49556       69.45905       26.01903
H         33.65960       68.87627       30.85004
H         35.68088       66.95279       29.77851
H         33.45724       68.54820       28.39973
H         34.62543       67.42991       27.60647
H         36.54003       68.83307       28.41082
H         35.37940       69.94111       29.23378
N         32.38129       66.06927       29.90901
C         31.52253       67.21567       30.10460
H         30.48352       66.86447       30.28342
H         31.80901       67.78282       31.00890
H         31.51135       67.85508       29.20252
H         31.91563       65.15432       29.89551
Ca        34.25741       62.37003       30.41510
O         34.97907       64.54887       32.82907
H         35.33763       64.65768       33.74451
H         35.70550       64.86713       32.24321
O         36.86722       64.09672       29.94728
H         37.41634       64.88765       30.17559
H         37.26517       63.74535       29.11282
O         32.76711       62.85967       28.10342
H         32.34938       62.19365       28.70380
H         33.63728       62.46057       27.85899

Ca 1.0



