%chk=apoCaM-CA-Ng.loop3.water3.frame784.chk
%nprocshared=20
%mem=10GB
%nosave
#b3lyp/svp scf=(tight,noincore,xqc) Test 
#IOP(5/87=12) Density=Current Pop=(MK,readradii) iop(6/33=2) iop(6/42=6)

apoCaM-CA-Ng.loop3.water3.frame784 

   0  1 
C         86.84820      -13.83199      -10.87088
C         85.73762      -14.43672      -11.68261
O         85.90650      -15.53547      -12.19027
H         87.75121      -13.68961      -11.49757
H         86.55148      -12.85176      -10.44011
H         87.09123      -14.51348      -10.02701
N         84.54621      -13.78902      -11.80663
C         83.37233      -14.39261      -12.43881
C         83.57594      -14.56471      -13.95336
O         84.51173      -13.99022      -14.49335
C         82.14345      -13.48283      -12.14073
C         80.79004      -14.15061      -12.10426
O         80.03509      -14.03430      -10.99853
O         80.33420      -14.74858      -13.05772
H         84.45369      -12.86955      -11.34688
H         83.22322      -15.36237      -11.93350
H         82.15471      -12.62192      -12.84119
H         82.25354      -13.06329      -11.11682
N         82.69262      -15.28316      -14.70805
C         82.66295      -15.27613      -16.16933
C         81.39147      -14.55783      -16.60357
O         81.49387      -13.51441      -17.23406
C         82.72355      -16.70420      -16.75550
C         84.10875      -17.35269      -16.60593
C         84.13405      -18.74404      -17.26272
C         85.55223      -19.33371      -17.28440
N         85.56499      -20.64888      -17.92737
H         81.95337      -15.80800      -14.23157
H         83.51684      -14.69504      -16.58501
H         82.51254      -16.63799      -17.84622
H         81.94320      -17.34602      -16.29353
H         84.39015      -17.43728      -15.53379
H         84.84949      -16.70165      -17.12068
H         83.78158      -18.66139      -18.31452
H         83.44857      -19.42507      -16.71163
H         85.94161      -19.42604      -16.24690
H         86.22218      -18.64921      -17.85206
H         86.54700      -21.00737      -17.95752
H         84.97570      -21.32097      -17.38460
H         85.20539      -20.57729      -18.90735
N         80.15551      -15.03516      -16.27091
C         78.90640      -14.32595      -16.57825
C         78.73811      -13.00628      -15.80161
O         77.75616      -12.31783      -16.04290
C         77.68046      -15.25388      -16.37652
C         77.63645      -15.91983      -15.03019
O         77.63320      -15.19913      -13.89995
O         77.64622      -17.13780      -14.95855
H         80.10795      -15.94327      -15.78732
H         78.90702      -14.06528      -17.66004
H         77.72489      -16.05554      -17.14713
H         76.74205      -14.68405      -16.54814
N         79.66019      -12.56380      -14.89836
C         79.61391      -11.27422      -14.22545
C         78.53331      -11.06694      -13.17739
O         78.57753      -10.00465      -12.57229
H         80.50777      -13.11310      -14.73434
H         79.54678      -10.46768      -14.98712
H         80.57863      -11.13734      -13.69263
N         77.53342      -11.96144      -12.90330
C         76.48478      -11.67466      -11.91843
C         76.28811      -12.82270      -10.92654
O         76.81891      -13.90253      -11.13028
C         75.17910      -11.38132      -12.69201
C         74.07784      -10.80680      -11.83821
N         74.23741       -9.60952      -11.22499
O         73.02733      -11.41764      -11.71206
H         77.46148      -12.82360      -13.45346
H         76.76381      -10.77136      -11.33610
H         74.83961      -12.31728      -13.18972
H         75.38753      -10.63192      -13.48614
H         75.11032       -9.07251      -11.33397
H         73.48324       -9.21105      -10.64667
N         75.50960      -12.64178       -9.82064
C         75.13972      -13.68313       -8.87217
C         76.31896      -14.34982       -8.20522
O         77.19486      -13.65991       -7.70318
H         75.12485      -11.70429       -9.63808
H         74.50131      -14.43987       -9.37722
H         74.52509      -13.21388       -8.07323
N         76.35746      -15.71140       -8.09550
C         77.43639      -16.42952       -7.42128
C         78.73492      -16.35571       -8.20508
O         78.77546      -15.74279       -9.25928
C         77.01748      -17.89905       -7.13372
C         75.97293      -17.97368       -6.03876
C         76.27500      -17.48156       -4.75322
C         74.71222      -18.54986       -6.26571
C         75.33484      -17.54749       -3.72474
C         73.77192      -18.62123       -5.22836
C         74.07817      -18.11785       -3.95798
O         73.16284      -18.18984       -2.97020
H         75.55728      -16.25363       -8.45753
H         77.64412      -15.93845       -6.44817
H         77.87425      -18.49167       -6.75598
H         76.67706      -18.38436       -8.07506
H         77.24268      -17.04631       -4.53926
H         74.45720      -18.94803       -7.23931
H         75.58799      -17.15768       -2.74625
H         72.80360      -19.06969       -5.41035
H         73.33958      -17.85011       -2.08058
N         79.85931      -16.93016       -7.68898
C         81.21141      -16.84666       -8.23306
C         81.31785      -17.47653       -9.62107
O         80.71210      -16.99348      -10.56452
C         81.75558      -15.39119       -8.20009
C         83.25918      -15.31503       -8.58675
C         81.50976      -14.73423       -6.82781
C         84.22265      -16.00618       -7.61067
H         79.77579      -17.43316       -6.79270
H         81.84144      -17.43184       -7.53218
H         81.19644      -14.79097       -8.94296
H         83.55440      -14.24581       -8.65261
H         83.40367      -15.75931       -9.59198
H         80.42237      -14.67314       -6.61146
H         81.98359      -15.31571       -6.01021
H         81.90647      -13.69773       -6.82083
H         84.16844      -15.54561       -6.60279
H         84.01999      -17.09252       -7.52788
H         85.26326      -15.88718       -7.97696
N         82.09126      -18.58337       -9.79696
C         82.23580      -19.26805      -11.08522
C         82.75460      -20.70566      -10.99348
O         82.84892      -21.32939      -12.04507
C         83.14729      -18.45249      -12.01896
O         84.44175      -18.35036      -11.48386
H         82.56837      -18.92341       -8.96262
H         81.22828      -19.35871      -11.54661
H         82.70504      -17.45477      -12.20826
H         83.22415      -18.93398      -13.01697
H         84.52097      -17.45151      -11.07322
N         83.09687      -21.32294       -9.82277
C         83.57905      -22.69527       -9.77128
C         82.48882      -23.67201      -10.19786
O         81.33572      -23.26755      -10.26289
C         84.03164      -23.00503       -8.34163
H         83.04117      -20.83337       -8.92671
H         84.44952      -22.76626      -10.45931
H         84.42090      -24.02435       -8.25514
H         84.83652      -22.30031       -8.04118
H         83.17952      -22.89515       -7.63607
N         82.74093      -24.96301      -10.56637
C         84.06348      -25.56420      -10.69952
C         84.02290      -27.03191      -10.28037
O         83.17056      -27.74414      -10.79405
C         84.48731      -25.47180      -12.16641
H         81.93762      -25.50668      -10.92179
H         84.82401      -24.99729      -10.14324
H         85.50084      -25.90787      -12.29732
H         83.77055      -26.00463      -12.82621
H         84.52740      -24.40481      -12.47674
N         84.91185      -27.61340       -9.41839
C         86.05484      -26.94101       -8.80966
C         85.65636      -26.18949       -7.54390
O         86.46819      -25.42925       -7.03450
C         87.15358      -27.99092       -8.51594
C         88.50179      -27.39370       -8.08442
C         89.52145      -28.48061       -7.90470
O         90.53236      -28.49481       -8.58859
O         89.32786      -29.44292       -6.98227
H         84.82051      -28.63255       -9.27529
H         86.48964      -26.24656       -9.55976
H         87.33410      -28.55860       -9.45662
H         86.78700      -28.70522       -7.74507
H         88.41262      -26.85308       -7.12209
H         88.84992      -26.68186       -8.86551
N         84.43279      -26.35294       -6.96157
C         84.06556      -25.66040       -5.74379
H         83.04271      -25.95881       -5.43087
H         84.77574      -25.91987       -4.92997
H         84.08081      -24.56287       -5.90343
H         83.74157      -26.99989       -7.36674
Ca        77.96770      -16.31788      -11.97460
O         75.32617      -17.49611      -11.47514
H         75.15313      -16.52180      -11.43206
H         75.56957      -17.66300      -12.42082
O         78.41061      -18.99275      -10.99564
H         78.65089      -19.79396      -11.52465
H         78.18830      -19.33925      -10.09576
O         80.43358      -18.04377      -13.88963
H         81.18415      -18.56932      -14.26276
H         79.62848      -18.55065      -14.15867

Ca 1.0



