%chk=apoCaM-CA-Ng.loop1.water3.frame303.chk
%nprocshared=20
%mem=10GB
%nosave
#b3lyp/svp scf=(tight,noincore,xqc) Test 
#IOP(5/87=12) Density=Current Pop=(MK,readradii) iop(6/33=2) iop(6/42=6)

apoCaM-CA-Ng.loop1.water3.frame303 

   0  1 
C         57.68444       45.83831       39.18134
C         57.30306       46.95190       38.25250
O         57.80339       48.05736       38.40698
H         58.40378       46.19256       39.94999
H         56.77567       45.45506       39.69135
H         58.15307       45.01422       38.60359
N         56.42292       46.71531       37.23915
C         56.03111       47.72666       36.25904
C         54.96475       48.70779       36.77293
O         54.14309       49.12961       35.97335
C         55.58689       47.06102       34.92408
C         54.31592       46.24531       35.02086
O         53.33526       46.56896       34.37039
O         54.25703       45.13769       35.78402
H         56.11708       45.74157       37.11391
H         56.93861       48.30622       35.99442
H         56.40158       46.40993       34.54109
H         55.43000       47.86423       34.17141
N         54.88442       49.10694       38.07772
C         53.83755       49.99583       38.57856
C         54.45663       51.19491       39.29951
O         55.22626       50.95040       40.21894
C         52.93813       49.21497       39.56860
C         52.29051       47.94202       38.97399
C         51.31204       48.16953       37.80599
C         50.05051       48.94006       38.22358
N         49.13286       49.09479       37.09516
H         55.53920       48.73238       38.77208
H         53.19795       50.33358       37.75689
H         52.14925       49.88766       39.96666
H         53.55843       48.88973       40.43279
H         51.74480       47.41091       39.78439
H         53.09887       47.26322       38.62681
H         50.99447       47.17097       37.43363
H         51.81887       48.68909       36.96946
H         50.32203       49.94304       38.60352
H         49.53538       48.38769       39.03967
H         48.27338       49.59558       37.41629
H         49.58473       49.66257       36.34410
H         48.85895       48.15824       36.71796
N         54.17407       52.51465       39.03446
C         53.28126       53.05621       38.00829
C         51.87209       52.48232       38.11167
O         51.42028       51.82787       37.18360
C         53.91855       52.93173       36.61033
C         55.08392       53.86758       36.42051
O         55.49724       54.68632       37.40589
O         55.62520       53.93441       35.33268
H         54.62197       53.21387       39.64782
H         53.15908       54.15117       38.16561
H         53.17725       53.25217       35.86298
H         54.21809       51.88721       36.38949
N         51.08050       52.69967       39.19841
C         51.46122       53.59626       40.27652
C         50.46082       53.63012       41.41494
O         49.53911       52.82739       41.44170
H         50.15212       52.25212       39.21183
H         51.56798       54.61143       39.84622
H         52.42737       53.27667       40.71668
N         50.60256       54.50285       42.45286
C         51.61617       55.55581       42.48414
C         51.26123       56.69770       41.52759
O         50.15124       56.73714       41.01333
C         51.79290       56.11583       43.92019
C         50.59521       56.87274       44.44872
O         50.70426       58.05332       44.73905
O         49.41056       56.25976       44.63191
H         49.96330       54.38839       43.25181
H         52.59354       55.10504       42.20515
H         52.66728       56.80272       43.92404
H         52.03087       55.28175       44.61512
N         52.15060       57.70745       41.31343
C         51.82001       58.95810       40.64234
C         51.48036       58.91495       39.16129
O         51.19728       59.98820       38.64568
H         53.08174       57.64307       41.75242
H         52.68796       59.64522       40.74899
H         50.96496       59.41973       41.18239
N         51.48404       57.78129       38.39968
C         51.16363       57.79291       36.96741
C         49.93003       56.95834       36.69830
O         49.87804       55.80805       37.11727
C         52.34399       57.28214       36.11802
C         53.58552       58.15767       36.31061
O         51.96945       57.32598       34.76271
H         51.72902       56.87942       38.83309
H         50.95874       58.82816       36.61295
H         52.57471       56.23285       36.41744
H         52.53448       56.67028       34.27825
H         54.40868       57.78663       35.66456
H         53.36265       59.21021       36.02862
H         53.92643       58.12980       37.36611
N         48.89595       57.47856       35.97160
C         47.65853       56.74955       35.71448
C         47.87959       55.44772       34.94379
O         46.98171       54.62424       34.95167
C         46.58766       57.62785       34.98154
C         47.01547       57.96464       33.52333
C         46.26424       58.89515       35.79972
C         45.98217       58.77918       32.74188
H         48.99522       58.44060       35.61616
H         47.24646       56.47442       36.71247
H         45.64830       57.03287       34.92837
H         47.15599       57.01506       32.96602
H         47.97930       58.51487       33.51047
H         45.97155       58.61868       36.83389
H         47.12616       59.59132       35.84626
H         45.40889       59.44440       35.35669
H         45.00064       58.25985       32.73282
H         45.86361       59.79362       33.17388
H         46.32743       58.90240       31.69320
N         49.01505       55.22885       34.20547
C         49.23122       54.00139       33.43345
C         50.55339       53.34295       33.80396
O         51.35490       53.93730       34.49785
C         49.15132       54.29419       31.91556
C         50.21493       55.29277       31.43277
O         47.87253       54.79366       31.61992
H         49.72693       55.96532       34.15034
H         48.43284       53.26683       33.67084
H         49.29772       53.32907       31.37661
H         47.74443       54.70505       30.63941
H         50.08232       56.28353       31.91493
H         51.23636       54.91567       31.64715
H         50.12207       55.43421       30.33533
N         50.80735       52.06553       33.38148
C         52.02388       51.32173       33.72171
C         53.27082       51.86279       33.02834
O         53.17121       52.74026       32.17908
C         51.85038       49.80410       33.39727
C         51.58643       49.49461       31.91660
O         50.79713       49.28595       34.16655
H         50.05833       51.59035       32.86497
H         52.17992       51.39005       34.81556
H         52.79492       49.28418       33.67552
H         51.05712       48.36929       34.44882
H         51.53344       48.39341       31.77873
H         50.62041       49.91597       31.57302
H         52.40160       49.88806       31.27579
N         54.48607       51.30925       33.31805
C         55.71926       51.56925       32.59133
C         56.83255       52.00376       33.53817
O         57.38136       53.07765       33.34201
C         56.07617       50.26688       31.83851
C         57.31966       50.31768       30.93546
C         57.29014       51.38981       29.83249
C         56.05774       51.29918       28.91612
N         56.14213       52.28137       27.83593
H         54.52802       50.58170       34.04274
H         55.55512       52.36754       31.83494
H         55.20298       49.97805       31.21450
H         56.22329       49.44289       32.56786
H         57.41597       49.31947       30.45291
H         58.22568       50.47644       31.55881
H         58.20791       51.25789       29.21840
H         57.33083       52.39985       30.29126
H         55.13618       51.49791       29.50534
H         55.98275       50.27935       28.47820
H         55.27103       52.23393       27.25954
H         56.23467       53.24585       28.23016
H         56.96413       52.06948       27.22492
N         57.23360       51.20074       34.57093
C         58.33031       51.51955       35.48424
C         59.45237       50.53078       35.24376
O         59.24349       49.33553       35.39482
C         57.85072       51.46961       36.96283
C         58.99626       51.56858       37.99840
C         59.80365       52.83253       37.88215
O         60.96431       52.77871       37.50788
O         59.28384       54.02146       38.24145
H         56.76733       50.29160       34.69318
H         58.71834       52.54376       35.29428
H         57.33752       50.50244       37.14552
H         57.11397       52.27659       37.14105
H         59.66787       50.69502       37.85467
H         58.59058       51.49295       39.03023
N         60.68762       50.97942       34.88188
C         61.82233       50.10800       34.66055
H         62.63180       50.37683       35.37151
H         61.56999       49.03703       34.80619
H         62.19279       50.24649       33.62391
H         60.84481       51.99181       34.76725
Ca        57.35710       54.15726       39.40903
O         59.58236       57.66878       38.52251
H         60.40768       57.42330       39.01099
H         59.90336       58.14018       37.71293
O         58.33907       56.26644       36.15068
H         57.80471       57.03792       35.83493
H         57.77284       55.47708       35.96326
O         56.65684       58.23632       39.51576
H         56.38019       59.05880       39.03872
H         56.23147       58.31080       40.40683

Ca 1.0



