%chk=apoCaM-CA-Ng.loop1.water3.frame1257.chk
%nprocshared=20
%mem=10GB
%nosave
#b3lyp/svp scf=(tight,noincore,xqc) Test 
#IOP(5/87=12) Density=Current Pop=(MK,readradii) iop(6/33=2) iop(6/42=6)

apoCaM-CA-Ng.loop1.water3.frame1257 

   0  1 
C         23.37442       36.45473       26.55393
C         24.33867       37.29546       27.33425
O         24.39922       38.49156       27.08460
H         22.34640       36.85086       26.68698
H         23.64323       36.49445       25.47677
H         23.39765       35.39596       26.88480
N         25.13255       36.73923       28.29760
C         26.08431       37.51935       29.08707
C         27.42650       37.69384       28.37263
O         28.46221       37.61396       29.02086
C         26.25620       36.92885       30.51333
C         26.94416       35.58150       30.54590
O         28.11936       35.44680       31.19008
O         26.44414       34.60533       30.01148
H         24.99737       35.74233       28.50788
H         25.64767       38.53284       29.23433
H         25.26356       36.84385       31.00445
H         26.86576       37.64015       31.11364
N         27.49474       37.94117       27.03322
C         28.75471       38.18329       26.34603
C         29.35365       39.48500       26.86375
O         30.47509       39.43375       27.34906
C         28.61902       38.17160       24.79617
C         27.89486       36.92987       24.22450
C         28.57360       35.58706       24.54466
C         27.73966       34.37644       24.08071
N         27.49344       34.36976       22.63777
H         26.63578       37.95210       26.48146
H         29.44988       37.34753       26.58306
H         29.63792       38.23592       24.35401
H         28.06381       39.05359       24.43049
H         27.84774       37.05449       23.12232
H         26.85089       36.90295       24.59600
H         28.68993       35.47433       25.64218
H         29.58255       35.56024       24.07904
H         26.76547       34.36750       24.61966
H         28.28846       33.44954       24.35947
H         28.39709       34.41385       22.11433
H         26.99620       33.48517       22.38523
H         26.87781       35.16880       22.36547
N         28.69046       40.68665       26.88247
C         27.33973       40.94975       26.37697
C         26.37258       41.28723       27.51869
O         26.77398       41.27590       28.67304
C         27.41408       42.06058       25.30409
C         27.77080       43.39420       25.89409
O         26.96619       43.90224       26.84071
O         28.75218       44.00849       25.52024
H         29.18493       41.48554       27.31000
H         26.91355       40.06858       25.88302
H         26.42587       42.16892       24.81038
H         28.14604       41.76879       24.51735
N         25.06231       41.58073       27.25599
C         24.06870       41.88573       28.28475
C         24.30182       43.20334       29.00142
O         25.25475       43.89260       28.69863
H         24.73623       41.54882       26.27858
H         24.03359       41.05446       29.01937
H         23.07267       41.96316       27.79680
N         23.43544       43.63832       29.95993
C         23.58118       44.92935       30.64900
C         22.22599       45.48581       31.10332
O         21.25281       44.74324       31.10949
C         24.49509       44.75321       31.88730
C         25.92946       44.51890       31.52426
O         26.54280       43.37907       31.89180
O         26.55747       45.38062       30.92897
H         22.62955       43.03316       30.17853
H         23.99867       45.66898       29.93439
H         24.10649       43.91032       32.49850
H         24.48818       45.63812       32.54430
N         22.04788       46.78253       31.51429
C         23.04932       47.84349       31.43403
C         23.33953       48.21749       30.00231
O         22.67263       47.71858       29.10936
H         21.11762       47.05377       31.86951
H         23.97535       47.56652       31.95900
H         22.65980       48.75837       31.93165
N         24.31543       49.12355       29.70549
C         24.57392       49.53920       28.33038
C         25.02966       48.30607       27.48912
O         26.39428       48.09197       27.73844
C         25.62336       50.69229       28.26134
C         25.18655       51.94684       29.02555
O         25.84387       51.03914       26.91720
H         24.85816       49.53138       30.48057
H         23.61290       49.92916       27.92644
H         26.57386       50.32903       28.71967
H         26.76025       51.41809       26.85939
H         25.04212       51.73849       30.10466
H         25.97796       52.72272       28.93993
H         24.24383       52.35097       28.60252
N         24.76641       48.51151       26.04627
C         24.79271       47.30102       25.18307
C         26.21721       47.02240       24.73968
O         27.06011       46.72333       25.55799
C         24.06945       46.04461       25.78714
C         22.57309       46.35692       26.06253
C         24.19293       44.84162       24.82529
C         21.80181       45.21156       26.72722
H         23.81179       48.92792       25.94559
H         24.22960       47.55723       24.25651
H         24.56009       45.76352       26.74100
H         22.06053       46.63047       25.11495
H         22.50095       47.22527       26.74009
H         23.69219       45.06213       23.85825
H         25.25555       44.59651       24.62540
H         23.74953       43.92496       25.26247
H         20.76388       45.54283       26.94251
H         21.73105       44.32578       26.06450
H         22.28362       44.92222       27.68341
N         26.57321       47.14084       23.43568
C         27.94867       46.96486       22.98405
C         28.56605       48.30900       22.62552
O         29.70112       48.32144       22.17156
C         28.02167       45.92421       21.83812
C         27.26450       46.34057       20.57404
O         27.51121       44.69213       22.28163
H         25.86293       47.43947       22.75142
H         28.58952       46.56156       23.79815
H         29.08980       45.79765       21.53959
H         28.24266       44.23170       22.77061
H         27.65129       47.30627       20.18756
H         27.40669       45.56775       19.78881
H         26.17601       46.43097       20.76585
N         27.89671       49.48647       22.83039
C         28.45836       50.78949       22.49235
C         29.67461       51.07281       23.37200
O         29.49346       51.29330       24.56215
C         27.37234       51.88610       22.67675
C         27.83711       53.25323       22.18268
O         26.21515       51.52456       21.96245
H         26.94415       49.46531       23.22127
H         28.74473       50.75289       21.41821
H         27.13320       51.95270       23.76788
H         25.43208       51.80165       22.50901
H         28.05337       53.20503       21.09427
H         27.03118       53.99897       22.35250
H         28.74568       53.58394       22.72570
N         30.94708       51.00181       22.86738
C         32.16299       51.13091       23.67953
C         32.05132       50.32831       24.96699
O         32.20163       50.88690       26.04683
C         32.52435       52.60918       23.96194
C         33.14693       53.31641       22.74676
C         33.50328       54.79193       23.03504
C         34.47943       55.04453       24.20920
N         35.81542       54.49474       23.97085
H         31.06316       50.72481       21.88109
H         33.01671       50.68739       23.12049
H         33.31236       52.61790       24.74176
H         31.63424       53.15444       24.34554
H         32.43367       53.28773       21.89577
H         34.06450       52.76892       22.43769
H         32.55789       55.32903       23.26060
H         33.93681       55.23873       22.11393
H         34.06880       54.64306       25.15946
H         34.57355       56.14413       24.34769
H         35.77928       53.45856       23.84745
H         36.24134       54.94341       23.12766
H         36.41938       54.70672       24.79888
N         31.74757       49.00333       24.92271
C         31.59297       48.20641       26.13115
C         30.90352       46.88018       25.81995
O         29.82790       46.68026       26.36480
C         32.92748       48.05068       26.90620
C         32.69504       47.52111       28.32957
C         33.99024       47.37711       29.07695
O         34.71257       48.34560       29.25505
O         34.35246       46.17797       29.57052
H         31.54263       48.59113       24.00391
H         30.90553       48.77769       26.79380
H         33.42203       49.03727       27.01124
H         33.63795       47.40640       26.36449
H         32.18112       46.53764       28.29418
H         32.04895       48.23785       28.88338
N         31.37103       45.92580       24.95658
C         32.61073       45.95843       24.20911
H         33.48186       45.91183       24.88333
H         32.66671       45.05815       23.56027
H         32.67024       46.83664       23.54257
H         30.78416       45.09535       24.80151
Ca        26.90009       45.88468       27.91530
O         28.74811       43.35051       29.39952
H         28.81251       43.30080       30.38508
H         27.80241       43.58437       29.23545
O         29.70578       46.05455       30.40321
H         29.81107       45.39800       31.13632
H         29.46866       46.89713       30.86461
O         29.00239       48.50604       28.61733
H         28.85222       49.26138       27.99490
H         29.47349       48.90899       29.38797

Ca 1.0



