%chk=apoCaM-CA-Ng.loop4.water5.frame643.chk
%nprocshared=20
%mem=10GB
%nosave
#b3lyp/svp scf=(tight,noincore,xqc) Test 
#IOP(5/87=12) Density=Current Pop=(MK,readradii) iop(6/33=2) iop(6/42=6)

apoCaM-CA-Ng.loop4.water5.frame643 

   -3  1 
C         67.97419       66.41651        7.20105
C         67.82076       67.39563        6.06882
O         67.60186       66.98098        4.94149
H         68.17688       66.93541        8.16297
H         67.04630       65.81932        7.31449
H         68.82796       65.73719        6.99833
N         67.92751       68.72890        6.30750
C         67.84270       69.77684        5.29767
C         66.49760       69.77781        4.57400
O         66.48554       69.84547        3.34960
C         68.99190       69.67634        4.26106
C         70.35468       69.42254        4.83030
O         70.96981       68.43304        4.46655
O         70.94618       70.26927        5.68714
H         68.09467       69.03850        7.27784
H         67.94463       70.74416        5.83863
H         69.01345       70.60920        3.65619
H         68.78036       68.83145        3.56848
N         65.31236       69.69088        5.24626
C         64.04178       69.74252        4.51379
C         63.79133       71.19253        4.08988
O         64.43855       72.06183        4.66051
C         62.87701       69.04559        5.30004
C         62.40944       69.75316        6.59977
C         63.28573       67.59495        5.63591
C         61.56843       71.00972        6.36020
H         65.32363       69.57478        6.27000
H         64.17819       69.12037        3.60558
H         61.99187       68.95355        4.63944
H         63.26778       69.97399        7.26759
H         61.73023       69.06123        7.14583
H         62.43841       67.05281        6.10877
H         63.56119       67.04251        4.71226
H         64.14432       67.56228        6.33920
H         61.20334       71.39640        7.33446
H         62.13481       71.82353        5.87923
H         60.68454       70.75892        5.73377
N         62.91531       71.59896        3.12294
C         62.12009       70.75398        2.23984
C         63.02521       69.90980        1.36506
O         62.91886       68.69146        1.40742
C         61.21296       71.65155        1.36476
C         60.36642       70.86510        0.40449
O         59.49387       69.94827        0.86283
O         60.45971       71.06301       -0.79666
H         62.84116       72.62058        2.98636
H         61.45478       70.10357        2.84226
H         61.83600       72.37631        0.79427
H         60.53924       72.23562        2.02884
N         63.95608       70.49229        0.55566
C         64.87954       69.71538       -0.25081
C         64.19743       68.93235       -1.34890
O         63.00201       69.07565       -1.56840
H         64.05222       71.51896        0.54928
H         65.43085       69.01906        0.41716
H         65.62062       70.39156       -0.73053
N         64.94208       68.06686       -2.09052
C         64.41996       67.29224       -3.21350
C         63.26977       66.35135       -2.86599
O         62.68795       65.81367       -3.79871
C         65.56037       66.50113       -3.91126
C         66.22407       65.45428       -3.04163
O         66.86116       65.79741       -1.90544
O         66.22540       64.28476       -3.39046
H         65.94515       68.00609       -1.86599
H         64.02116       68.02464       -3.94995
H         66.34117       67.21466       -4.24864
H         65.14947       66.00338       -4.81801
N         62.87625       66.08106       -1.58448
C         61.77038       65.17895       -1.28715
C         62.03613       63.73484       -1.68246
O         61.13687       62.92248       -1.52705
H         63.35411       66.52400       -0.78802
H         60.85969       65.54740       -1.80768
H         61.56629       65.19308       -0.19422
N         63.24683       63.33346       -2.17217
C         63.59617       61.96760       -2.54138
C         63.57747       61.04554       -1.33263
O         63.42650       59.84255       -1.49708
C         62.75321       61.44304       -3.72817
C         62.76093       62.43068       -4.91047
C         62.08907       61.89802       -6.15221
N         61.97699       62.69105       -7.24291
O         61.64956       60.75761       -6.18760
H         64.00186       64.01782       -2.26544
H         64.65103       61.97851       -2.89593
H         61.70114       61.26119       -3.42043
H         63.19324       60.47432       -4.05491
H         63.80758       62.69496       -5.17422
H         62.22658       63.35314       -4.60119
H         62.33413       63.65803       -7.22766
H         61.52702       62.34245       -8.10222
N         63.75180       61.55583       -0.07762
C         63.74525       60.75068        1.13653
C         65.01496       60.91416        1.96153
O         65.13964       60.16997        2.92567
C         62.51169       61.11279        2.01845
C         62.43844       62.61831        2.34811
C         61.20700       60.65903        1.35519
H         63.87490       62.57102        0.02809
H         63.68494       59.66977        0.87929
H         62.58803       60.55459        2.97809
H         63.37112       62.96261        2.84119
H         62.27391       63.22591        1.43331
H         61.59029       62.82068        3.03466
H         61.05343       61.16582        0.38218
H         61.23092       59.56117        1.18786
H         60.34418       60.88640        2.01730
N         65.95660       61.88121        1.72120
C         67.07495       62.10190        2.63382
C         68.40340       62.17716        1.89619
O         68.41842       62.23247        0.67353
C         66.81633       63.42771        3.38261
C         67.63322       63.55229        4.63816
N         67.38985       62.73322        5.68869
O         68.50448       64.40276        4.71751
H         65.83638       62.54704        0.94600
H         67.12385       61.26959        3.36765
H         65.75309       63.48938        3.70038
H         67.00374       64.27687        2.68646
H         66.64083       62.02589        5.63958
H         67.93055       62.81989        6.56113
N         69.57218       62.20320        2.59832
C         70.87294       62.42621        1.96842
C         72.01518       62.03920        2.90522
O         71.77830       61.76489        4.07426
C         70.97547       63.93683        1.61784
C         72.22765       64.32702        0.87393
C         73.20330       65.13437        1.48752
C         72.42946       63.88746       -0.44338
C         74.36630       65.48425        0.79502
C         73.58844       64.24746       -1.13720
C         74.56152       65.04247       -0.52178
O         75.67632       65.37405       -1.20390
H         69.51673       62.06483        3.61650
H         70.94653       61.76981        1.07313
H         70.92060       64.49611        2.57976
H         70.10681       64.26184        1.00729
H         73.07318       65.48231        2.50513
H         71.68574       63.27135       -0.93275
H         75.11435       66.09712        1.28285
H         73.73037       63.90640       -2.15474
H         76.37531       65.91902       -0.81511
N         73.29732       61.98305        2.44186
C         74.43309       61.68906        3.29665
C         75.42682       62.83987        3.19416
O         76.16453       62.86006        2.21714
C         75.07955       60.35729        2.84095
C         76.22997       59.91179        3.75764
C         76.92334       58.69855        3.20434
O         76.30789       57.66004        3.02325
O         78.23576       58.75478        2.90459
H         73.48376       62.14836        1.44240
H         74.10028       61.54580        4.33760
H         75.45507       60.47250        1.79884
H         74.30726       59.55636        2.83028
H         75.83088       59.68349        4.76964
H         76.97998       60.72506        3.85103
N         75.54415       63.85941        4.09809
C         74.69006       64.14141        5.25560
C         74.68454       63.01646        6.26775
O         75.74322       62.52153        6.62996
C         75.19654       65.40215        5.99922
C         75.08451       66.72111        5.20704
C         75.81099       67.80964        5.95900
O         75.19659       68.92234        6.41217
O         77.00657       67.68205        6.17097
H         76.30394       64.53051        3.90491
H         73.64929       64.33974        4.91571
H         76.25855       65.21635        6.27699
H         74.61488       65.54067        6.93897
H         74.01368       66.97835        5.05463
H         75.56208       66.62966        4.20983
N         73.50290       62.62513        6.82524
C         73.39268       61.61098        7.85210
H         72.68782       60.82351        7.51496
H         74.36887       61.13959        8.08844
H         72.99282       62.07479        8.77950
H         72.63154       63.09860        6.54117
Ca        73.08268       69.64651        6.08716
O         72.15707       72.59659        7.86561
H         71.77677       73.02053        7.05559
H         72.61994       73.33411        8.33717
O         73.46634       72.23719        4.84843
H         73.91924       73.07883        5.10537
H         73.37360       72.28872        3.86434
O         71.96012       67.02259        7.10317
H         71.24974       67.04093        7.79202
H         71.51194       66.67224        6.29349
O         75.25254       71.42881        7.89758
H         75.67592       71.69078        7.04150
H         75.51399       72.14062        8.53351
O         73.86336       68.66250        9.18074
H         73.78779       67.67531        9.19033
H         74.63731       68.85758        9.76661

Ca 1.0



