%chk=apoCaM-CA-Ng.loop1.water3.frame741.chk
%nprocshared=20
%mem=10GB
%nosave
#b3lyp/svp scf=(tight,noincore,xqc) Test 
#IOP(5/87=12) Density=Current Pop=(MK,readradii) iop(6/33=2) iop(6/42=6)

apoCaM-CA-Ng.loop1.water3.frame741 

   0  1 
C         69.21436       34.02374        0.28918
C         69.85156       35.00879       -0.64433
O         69.13581       35.79823       -1.24357
H         68.49694       33.39282       -0.27498
H         69.97170       33.36308        0.76179
H         68.67342       34.56980        1.08993
N         71.20318       35.02668       -0.80816
C         71.89322       35.96111       -1.68311
C         72.58128       35.23746       -2.88893
O         73.14331       33.96973       -2.65607
C         72.63766       37.06913       -0.84648
C         73.51266       36.83864        0.38495
O         73.76581       37.80790        1.08361
O         74.00424       35.64908        0.77214
H         71.76937       34.35946       -0.26704
H         71.15444       36.57988       -2.23943
H         71.79074       37.64715       -0.41170
H         73.16468       37.77222       -1.52551
N         73.49597       36.12391       -3.60886
C         74.09227       35.57945       -4.84609
C         75.52581       36.10838       -4.96493
O         76.15285       35.94802       -6.00154
C         73.15662       35.88062       -6.04944
C         73.51899       35.11625       -7.33875
C         72.42274       35.29550       -8.40588
C         72.70891       34.55051       -9.72374
N         72.77476       33.09722       -9.54938
H         73.06133       37.05990       -3.79103
H         74.18382       34.47389       -4.77990
H         73.10108       36.97436       -6.24353
H         72.14171       35.53257       -5.75399
H         73.60114       34.03848       -7.08752
H         74.48806       35.46906       -7.74652
H         72.32440       36.37808       -8.63890
H         71.44852       34.93954       -8.00322
H         73.65726       34.91862      -10.17249
H         71.88273       34.78387      -10.43261
H         73.60415       32.82959       -8.97403
H         71.89758       32.74408       -9.10222
H         72.87572       32.64750      -10.48813
N         76.13772       36.66184       -3.86914
C         77.52072       37.13496       -3.79961
C         78.52943       36.04305       -4.16335
O         78.12615       34.90273       -4.34491
C         77.77453       37.66157       -2.34927
C         77.56161       36.60134       -1.29690
O         76.59453       36.76038       -0.37542
O         78.26316       35.60284       -1.26582
H         75.59631       36.74081       -2.99934
H         77.63092       37.96521       -4.53015
H         77.06510       38.49657       -2.16044
H         78.78706       38.06626       -2.18946
N         79.87031       36.27798       -4.28570
C         80.52576       37.56636       -4.13930
C         81.26127       37.94322       -5.38968
O         80.62327       38.10573       -6.42032
H         80.47910       35.47457       -4.49148
H         81.22269       37.50812       -3.27597
H         79.81942       38.39396       -3.96716
N         82.60610       38.16316       -5.36152
C         83.34088       38.63384       -6.52669
C         83.29873       37.59256       -7.62739
O         83.84894       36.51623       -7.44965
C         84.80256       38.96179       -6.13754
C         85.62368       39.57254       -7.24572
O         85.14703       39.78789       -8.34928
O         86.90784       39.89901       -7.00733
H         83.10862       38.04201       -4.46798
H         82.86254       39.58009       -6.86579
H         85.30877       38.03558       -5.78655
H         84.79173       39.68772       -5.29561
N         82.66164       37.85201       -8.80340
C         82.65628       36.92045       -9.91889
C         81.94658       35.60395       -9.65769
O         81.99539       34.76418      -10.54521
H         82.20445       38.76681       -8.93639
H         83.71175       36.70904      -10.19645
H         82.16433       37.40016      -10.79275
N         81.26577       35.33796       -8.50221
C         80.60875       34.06035       -8.24027
C         81.18984       33.41720       -6.99874
O         81.66181       34.11604       -6.11524
C         79.08737       34.25247       -8.04909
C         78.43368       34.87315       -9.28471
O         78.48712       33.00564       -7.79764
H         81.19469       36.05850       -7.77390
H         80.76391       33.36068       -9.09134
H         78.93281       34.93495       -7.17865
H         77.70068       33.16953       -7.21445
H         77.34332       34.99152       -9.10881
H         78.86308       35.87515       -9.49363
H         78.58451       34.21938      -10.17023
N         81.14385       32.06518       -6.85545
C         81.61629       31.36667       -5.66410
C         83.08974       31.66431       -5.43913
O         83.45206       32.01826       -4.32558
C         81.34021       29.83154       -5.74928
C         79.84681       29.48787       -6.04314
C         81.79071       29.12308       -4.45481
C         78.83049       30.08766       -5.06420
H         80.75138       31.52073       -7.63531
H         81.05257       31.74226       -4.78115
H         81.93879       29.40437       -6.58440
H         79.72754       28.38250       -6.04873
H         79.56480       29.82840       -7.05896
H         81.24887       29.51705       -3.56973
H         81.60439       28.03042       -4.52868
H         82.87796       29.26222       -4.28269
H         78.85761       31.19686       -5.09413
H         77.80804       29.77296       -5.36229
H         79.00942       29.73948       -4.02766
N         83.97713       31.62494       -6.47508
C         85.38968       31.96810       -6.32407
C         86.28215       30.93158       -6.97290
O         85.80202       30.03643       -7.65465
C         85.68768       33.37960       -6.90290
C         85.26601       33.55275       -8.37089
O         85.10073       34.37266       -6.10367
H         83.62164       31.40913       -7.41886
H         85.66377       31.98942       -5.24594
H         86.78303       33.55639       -6.85280
H         84.12138       34.24169       -6.13146
H         85.76851       32.80033       -9.01399
H         84.16594       33.44904       -8.48314
H         85.55251       34.56527       -8.72543
N         87.62560       31.00330       -6.76255
C         88.59077       30.08061       -7.33281
C         89.09349       29.19198       -6.21366
O         88.88732       27.98789       -6.28149
C         89.69364       30.88433       -8.07754
C         90.73493       29.97920       -8.73752
O         90.33914       31.77645       -7.20401
H         87.98078       31.73120       -6.12375
H         88.09901       29.42040       -8.08264
H         89.17747       31.46621       -8.87812
H         90.69445       32.52442       -7.75164
H         90.24569       29.29749       -9.46378
H         91.47433       30.60337       -9.28473
H         91.27659       29.38133       -7.97456
N         89.73029       29.72098       -5.13398
C         90.14762       28.93799       -3.97879
C         89.76421       29.64876       -2.68850
O         89.54014       30.85234       -2.69989
C         91.64992       28.60455       -4.06764
C         92.52599       29.82836       -4.40062
C         94.01087       29.47895       -4.56429
C         94.68832       29.13560       -3.23183
N         96.11149       28.86490       -3.43035
H         89.92577       30.73117       -5.11900
H         89.60303       27.96733       -3.96950
H         91.78191       27.87819       -4.90067
H         91.96636       28.10488       -3.12862
H         92.40308       30.62916       -3.64112
H         92.19525       30.22711       -5.38426
H         94.52387       30.37031       -4.98672
H         94.12432       28.64316       -5.29076
H         94.21191       28.24745       -2.76631
H         94.57530       30.00028       -2.54031
H         96.55721       28.68288       -2.50251
H         96.23366       28.02283       -4.03854
H         96.57898       29.68977       -3.87270
N         89.59561       28.93375       -1.53849
C         89.13407       29.53645       -0.28958
C         87.80045       30.26312       -0.48737
O         87.77590       31.45676       -0.22190
C         89.05236       28.49872        0.85470
C         90.43835       27.98012        1.27649
C         90.36941       26.95588        2.38106
O         91.51091       26.43024        2.86359
O         89.29968       26.58901        2.84394
H         89.76379       27.91639       -1.56911
H         89.87703       30.30211        0.03291
H         88.43157       27.63581        0.55733
H         88.58907       28.98147        1.74425
H         91.04894       28.83741        1.63389
H         90.95278       27.51479        0.41064
N         86.65651       29.69175       -0.97039
C         86.50536       28.30911       -1.36751
H         85.48445       28.15270       -1.77669
H         87.23330       28.04518       -2.16039
H         86.59971       27.63616       -0.49778
H         85.83006       30.29901       -1.08932
Ca        74.20966       34.08423       -0.72842
O         76.52246       35.59720        2.34158
H         77.14898       35.18620        2.98805
H         75.98982       36.23521        2.87976
O         76.63907       32.83517       -2.38176
H         76.15628       32.43886       -3.15008
H         77.59216       32.81309       -2.64892
O         77.71291       32.82419        1.17194
H         77.18546       32.65098        1.99202
H         78.57643       33.17827        1.50304

Ca 1.0



