%chk=apoCaM-CA-Ng.loop1.water1.frame878.chk
%nprocshared=20
%mem=10GB
%nosave
#b3lyp/svp scf=(tight,noincore,xqc) Test 
#IOP(5/87=12) Density=Current Pop=(MK,readradii) iop(6/33=2) iop(6/42=6)

apoCaM-CA-Ng.loop1.water1.frame878 

   0  1 
C          2.21503       82.08468       32.06437
C          2.06082       83.23347       33.01574
O          1.05234       83.92198       32.94879
H          3.18217       81.56020       32.21493
H          1.38622       81.36287       32.20792
H          2.18990       82.47028       31.02233
N          3.04429       83.52337       33.91412
C          3.00210       84.69044       34.78989
C          2.84058       85.94615       33.94896
O          3.55850       86.09075       32.98299
C          4.26068       84.76341       35.69209
C          5.58871       84.82583       34.97140
O          5.65830       84.74417       33.62723
O          6.61282       84.98105       35.61715
H          3.87433       82.91189       33.94251
H          2.13134       84.60285       35.47651
H          4.27390       83.87961       36.36580
H          4.16514       85.67200       36.32797
N          1.85006       86.84124       34.20323
C          1.54307       88.00091       33.36033
C          2.66940       89.04708       33.35530
O          2.53715       90.07226       34.00789
C          0.16182       88.55018       33.80600
C         -0.43953       89.63999       32.90255
C         -1.92565       89.83929       33.25826
C         -2.59801       90.91870       32.40212
N         -4.03487       90.98066       32.67466
H          1.23635       86.64597       35.00990
H          1.38690       87.65420       32.31413
H          0.19567       88.90923       34.85854
H         -0.53194       87.67973       33.76510
H         -0.38333       89.31694       31.84020
H          0.13014       90.58483       33.01940
H         -2.03101       90.11052       34.33157
H         -2.45492       88.87606       33.08341
H         -2.44568       90.69663       31.32274
H         -2.14096       91.90162       32.63265
H         -4.46036       91.74792       32.10580
H         -4.48775       90.07600       32.40747
H         -4.20688       91.17352       33.68808
N          3.76392       88.88370       32.54274
C          4.82359       89.87143       32.33581
C          5.70812       89.42372       31.10166
O          6.75465       88.54840       31.42639
C          5.58637       90.25257       33.63555
C          6.18805       89.12053       34.42444
O          5.67520       88.80206       35.62917
O          7.19066       88.54821       34.03512
H          3.78838       88.06203       31.93086
H          4.28474       90.78423       32.05743
H          4.85753       90.74559       34.30979
H          6.36858       91.01075       33.41896
N          6.25044       90.44819       30.17882
C          5.70450       91.81069       30.20811
C          4.22170       91.90957       29.91241
O          3.59177       90.94055       29.51064
H          6.23378       90.06457       29.20645
H          6.26240       92.46031       29.50140
H          5.89514       92.21820       31.22328
N          3.59066       93.05991       30.26979
C          2.14632       93.22553       30.34835
C          1.73556       94.52287       29.67602
O          2.40426       95.53137       29.86134
C          1.78761       93.25402       31.84905
C          0.31881       93.35280       32.16478
O         -0.07033       93.37670       33.45304
O         -0.52527       93.39742       31.28517
H          4.17156       93.81928       30.65959
H          1.60805       92.36050       29.89767
H          2.31072       94.10415       32.33633
H          2.15532       92.31038       32.30896
N          0.60095       94.58544       28.92528
C          0.16890       95.79462       28.24725
C          1.11701       96.08226       27.12304
O          1.70353       97.15367       27.06958
H          0.00998       93.74600       28.83057
H          0.09367       96.64256       28.96438
H         -0.83450       95.62511       27.80237
N          1.34878       95.10213       26.20953
C          2.37013       95.19218       25.17945
C          3.66900       94.62374       25.72745
O          3.68231       94.15406       26.85762
C          1.89391       94.48361       23.87681
C          1.67506       92.96249       24.01435
O          0.73123       95.10054       23.38132
H          0.89009       94.19305       26.36557
H          2.56486       96.25918       24.93481
H          2.68161       94.61411       23.10610
H         -0.01607       94.88639       23.99951
H          0.86407       92.71913       24.73068
H          1.38398       92.53860       23.02980
H          2.60752       92.45926       24.34545
N          4.80471       94.62838       24.97213
C          6.06375       94.05249       25.44614
C          7.24677       95.01066       25.32636
O          8.31178       94.64807       25.81153
C          6.30621       92.70022       24.70277
C          7.51918       91.88050       25.21885
C          6.44783       92.89899       23.18185
C          7.45326       91.55616       26.71231
H          4.74997       94.99708       24.01392
H          5.96222       93.82438       26.52571
H          5.40272       92.07276       24.87561
H          8.47682       92.39506       24.99905
H          7.54014       90.91373       24.67072
H          6.56923       91.91797       22.67697
H          5.54365       93.37031       22.74755
H          7.33029       93.53180       22.94766
H          6.50919       91.02205       26.94745
H          8.31114       90.90794       26.98774
H          7.52384       92.47415       27.32971
N          7.17484       96.22530       24.70516
C          8.35051       97.07413       24.52099
C          8.66558       97.25370       23.04898
O          7.89634       96.82643       22.19463
C          8.19949       98.42816       25.26178
C          7.02659       99.27558       24.76043
O          8.03479       98.19776       26.63642
H          6.28145       96.55090       24.30908
H          9.25048       96.58056       24.94922
H          9.11748       99.04166       25.10550
H          8.93040       97.96085       26.99583
H          7.13822       99.50060       23.67896
H          6.05931       98.76044       24.93143
H          7.00506      100.23857       25.31449
N          9.83089       97.85390       22.69217
C         10.26794       98.06359       21.32207
C         11.54458       97.27849       21.07113
O         11.57133       96.47491       20.15104
C         10.44503       99.58559       21.06793
C         10.95121       99.89762       19.65617
O         11.33355      100.14757       22.00243
H         10.46089       98.16996       23.44619
H          9.50128       97.70040       20.59899
H          9.43355      100.04605       21.18043
H         10.92847      100.99016       22.33584
H         11.01555      100.99824       19.51882
H         11.96596       99.47251       19.49874
H         10.26020       99.48369       18.89278
N         12.65438       97.49987       21.83191
C         13.95561       96.90392       21.55621
C         14.54628       96.23616       22.78357
O         14.23639       96.62857       23.89931
C         14.92138       98.01183       21.06347
C         15.10172       99.15066       22.09134
C         16.01250      100.26861       21.58936
C         16.09703      101.37805       22.65057
N         16.94065      102.48088       22.19904
H         12.58714       98.16876       22.60690
H         13.87476       96.14789       20.74432
H         14.50948       98.44062       20.12358
H         15.91212       97.56301       20.82988
H         15.52505       98.74221       23.03385
H         14.12115       99.61765       22.30932
H         15.59165      100.69062       20.65044
H         17.02624       99.86272       21.38301
H         16.51197      100.95982       23.59518
H         15.07545      101.76789       22.86375
H         16.54238      102.90198       21.32855
H         16.97023      103.21220       22.94605
H         17.91166      102.13805       22.01868
N         15.51521       95.29036       22.62589
C         16.33127       94.78438       23.72401
C         15.50456       94.22833       24.88130
O         15.69097       94.72629       25.98290
C         17.39635       93.78770       23.20267
C         18.48189       93.50166       24.25123
C         19.56682       92.63525       23.67644
O         20.71174       93.05369       23.60276
O         19.28405       91.39289       23.24102
H         15.73291       94.97507       21.66772
H         16.90239       95.65943       24.11073
H         17.90459       94.25490       22.32948
H         16.93256       92.83926       22.86022
H         18.04482       92.99935       25.13935
H         18.92987       94.46764       24.57583
N         14.56677       93.24160       24.77523
C         14.15777       92.57574       23.55729
H         13.07378       92.75829       23.39707
H         14.69493       92.92604       22.66101
H         14.32114       91.48368       23.66542
H         14.07380       92.95439       25.63554
Ca         6.11984       86.63859       32.49363
O          3.99779       85.91585       29.99286
H          3.40440       86.70585       29.92924
H          3.99823       85.53297       29.08008

Ca 1.0



