%chk=apoCaM-CA-Ng.loop2.water3.frame135.chk
%nprocshared=20
%mem=10GB
%nosave
#b3lyp/svp scf=(tight,noincore,xqc) Test 
#IOP(5/87=12) Density=Current Pop=(MK,readradii) iop(6/33=2) iop(6/42=6)

apoCaM-CA-Ng.loop2.water3.frame135 

   -2  1 
C         33.85071       54.85297      -10.01799
C         32.88559       55.22990      -11.10200
O         33.30813       55.72207      -12.13842
H         34.89265       55.10377      -10.30965
H         33.59873       55.40338       -9.08649
H         33.78237       53.76201       -9.82460
N         31.55179       55.04376      -10.90758
C         30.52980       55.39309      -11.88570
C         29.70315       56.58711      -11.40855
O         28.77353       56.94871      -12.10773
C         29.66455       54.13896      -12.14827
C         28.62648       54.34489      -13.21824
O         28.96142       54.64629      -14.35289
O         27.32009       54.19009      -12.92886
H         31.23850       54.65684      -10.00252
H         30.99726       55.69703      -12.84848
H         29.16417       53.83245      -11.20348
H         30.32467       53.30641      -12.47585
N         30.00321       57.25981      -10.25296
C         29.31631       58.43554       -9.71918
C         29.50484       59.69030      -10.56785
O         30.21867       60.57734      -10.12158
C         27.84262       58.15468       -9.40724
H         30.78964       56.92895       -9.67703
H         29.80198       58.65560       -8.73920
H         27.38739       59.04018       -8.91410
H         27.26160       57.92752      -10.32317
H         27.76411       57.28886       -8.71591
N         28.86297       59.87171      -11.75904
C         28.94946       61.09263      -12.55481
C         29.51285       60.83141      -13.95030
O         29.54843       61.76289      -14.74280
C         27.54063       61.71117      -12.64855
C         26.98874       62.03104      -11.28481
O         27.62367       62.90874      -10.48501
O         25.96144       61.49798      -10.89711
H         28.22093       59.15180      -12.10629
H         29.61858       61.83974      -12.07763
H         26.86092       60.99997      -13.16872
H         27.57570       62.65386      -13.23564
N         30.00871       59.61239      -14.31658
C         30.57084       59.32594      -15.62936
C         31.73097       60.23736      -15.96037
O         31.72728       60.85151      -17.01785
H         30.01732       58.83906      -13.63741
H         29.78266       59.41057      -16.40919
H         30.94058       58.27746      -15.62942
N         32.74387       60.40377      -15.06957
C         33.86726       61.30969      -15.29399
C         34.86522       60.69612      -16.26165
O         35.39846       59.62826      -15.99464
C         34.51884       61.65558      -13.94606
C         33.55523       62.48847      -13.13300
N         33.36923       63.79863      -13.42066
O         32.92492       61.97558      -12.22377
H         32.66494       59.92067      -14.16041
H         33.49032       62.27033      -15.71319
H         35.45640       62.23841      -14.07321
H         34.77293       60.70942      -13.41917
H         33.90005       64.25135      -14.17928
H         32.71074       64.36934      -12.86999
N         35.15013       61.34158      -17.42617
C         36.05103       60.85029      -18.45605
C         37.50058       60.80556      -18.02812
O         37.96645       61.74426      -17.39726
H         34.67268       62.23504      -17.62067
H         36.00976       61.57172      -19.30038
H         35.70597       59.86909      -18.84654
N         38.31177       59.79838      -18.47193
C         39.76015       59.79471      -18.24448
C         40.13068       59.55254      -16.78585
O         41.29335       59.73202      -16.44618
C         40.49936       58.80529      -19.19059
C         40.13732       57.32604      -18.98202
O         40.30995       59.17560      -20.53518
H         37.89158       59.07593      -19.07297
H         40.13486       60.80756      -18.51595
H         41.58964       58.89604      -18.98963
H         39.38017       58.94839      -20.79552
H         40.37702       57.01202      -17.94961
H         39.06258       57.13402      -19.17639
H         40.73224       56.69792      -19.67888
N         39.20643       59.15192      -15.86938
C         39.47609       59.00405      -14.44241
C         38.56604       59.94743      -13.66842
O         37.78757       60.67017      -14.28032
C         39.28162       57.51831      -13.98838
C         37.84467       56.99743      -14.25960
C         40.34990       56.62076      -14.63383
C         37.54972       55.65801      -13.58136
H         38.24367       58.96277      -16.18281
H         40.52169       59.29476      -14.19555
H         39.46264       57.46777      -12.89545
H         37.66755       56.90051      -15.35204
H         37.10815       57.72104      -13.85244
H         40.30068       55.58568      -14.24093
H         40.22518       56.58885      -15.73201
H         41.36471       57.00777      -14.39881
H         37.67738       55.75313      -12.48140
H         36.49839       55.36561      -13.78702
H         38.20699       54.85044      -13.95953
N         38.56808       59.94690      -12.30750
C         37.59648       60.67776      -11.50956
C         38.27341       61.47016      -10.38022
O         37.57342       62.00321       -9.53219
C         36.61507       59.61434      -10.98244
C         35.30728       60.13039      -10.46506
O         34.50860       59.32840      -10.00795
O         34.94077       61.42304      -10.56360
H         39.19989       59.30394      -11.80646
H         37.01158       61.37728      -12.14610
H         37.12244       59.00112      -10.20795
H         36.33393       58.93966      -11.82244
N         39.63556       61.61291      -10.32300
C         40.33551       62.33997       -9.26381
C         40.27680       61.55854       -7.95203
O         40.73136       60.42405       -7.95396
C         41.82764       62.50716       -9.64218
C         42.58462       63.27025       -8.58031
C         42.33093       64.63537       -8.36524
C         43.53740       62.61463       -7.78174
C         43.01530       65.33016       -7.36346
C         44.21392       63.31109       -6.77664
C         43.95350       64.66769       -6.56755
H         40.20849       61.22438      -11.08454
H         39.89200       63.35325       -9.18373
H         41.93334       63.03470      -10.61486
H         42.26876       61.49316       -9.76986
H         41.60235       65.15965       -8.97113
H         43.74353       61.56104       -7.92390
H         42.81510       66.38127       -7.20136
H         44.93718       62.79704       -6.15707
H         44.47801       65.20486       -5.78822
N         39.81502       62.08967       -6.77636
C         39.79966       61.37000       -5.50673
C         39.03129       60.06369       -5.57468
O         39.54802       59.03656       -5.15866
C         39.10846       62.34765       -4.54498
C         39.55177       63.68051       -5.09824
C         39.37989       63.45993       -6.59890
H         40.85146       61.19692       -5.18279
H         38.00373       62.31349       -4.67946
H         39.33627       62.17064       -3.47190
H         39.02003       64.56792       -4.69539
H         40.64082       63.78763       -4.88044
H         38.31962       63.54475       -6.92288
H         40.01294       64.20545       -7.11587
N         37.78063       60.04427       -6.11374
C         36.93542       58.85117       -6.20644
C         37.57604       57.74908       -7.04319
O         37.14416       56.61087       -6.92655
C         35.58132       59.25051       -6.82938
C         34.78149       60.21055       -5.91924
C         33.87220       61.06863       -6.74466
O         34.08426       62.27089       -6.79758
O         32.94034       60.54296       -7.55627
H         37.41756       60.93796       -6.48006
H         36.77719       58.45168       -5.18023
H         34.94099       58.37493       -7.07538
H         35.84270       59.75522       -7.78579
H         35.46865       60.91139       -5.40073
H         34.23624       59.64321       -5.13770
N         38.59928       58.00720       -7.90555
C         39.29862       56.99136       -8.66504
H         40.37917       57.03048       -8.40733
H         38.92887       55.96818       -8.44726
H         39.18505       57.19401       -9.75022
H         38.90127       58.97432       -8.04711
Ca        33.03373       61.76179       -9.42202
O         31.04649       63.10587       -7.35063
H         31.02824       64.00644       -7.76182
H         30.31432       62.61125       -7.79762
O         30.87172       63.84440      -10.72516
H         30.44454       64.72707      -10.85803
H         30.23160       63.34263      -10.16242
O         33.59863       64.75044       -9.87217
H         34.53202       64.84409      -10.18840
H         33.51458       65.40919       -9.13786

Ca 1.0



