%chk=apoCaM-CA-Ng.loop1.water4.frame1016.chk
%nprocshared=20
%mem=10GB
%nosave
#b3lyp/svp scf=(tight,noincore,xqc) Test 
#IOP(5/87=12) Density=Current Pop=(MK,readradii) iop(6/33=2) iop(6/42=6)

apoCaM-CA-Ng.loop1.water4.frame1016 

   0  1 
C         46.04064       20.50723       62.38493
C         46.07313       21.96176       62.76506
O         46.38165       22.78413       61.91511
H         45.31389       20.35365       61.55908
H         47.04681       20.18471       62.04450
H         45.73638       19.86758       63.24031
N         45.75162       22.35687       64.03019
C         45.73296       23.75641       64.45058
C         47.12655       24.36284       64.34530
O         48.04343       23.86536       64.98492
C         45.19654       23.85892       65.89167
C         45.04581       25.28411       66.33599
O         45.72728       25.73360       67.40656
O         44.29612       26.03727       65.73522
H         45.48164       21.63004       64.71168
H         45.02387       24.30168       63.78766
H         45.87742       23.31612       66.58354
H         44.19551       23.37698       65.94423
N         47.36009       25.41543       63.50886
C         48.70027       25.91317       63.21894
C         49.35213       26.76968       64.31619
O         50.53248       26.52834       64.53202
C         48.81534       26.51137       61.79603
C         48.46083       25.45919       60.72433
C         48.62120       26.01526       59.30830
C         48.36950       24.93036       58.25467
N         48.55702       25.46436       56.90635
H         46.57232       25.78036       62.95211
H         49.36214       25.01938       63.12551
H         49.86838       26.82939       61.63148
H         48.17950       27.39560       61.65479
H         47.41373       25.11092       60.85237
H         49.14124       24.58746       60.84421
H         49.65613       26.40234       59.18363
H         47.89464       26.84102       59.15526
H         47.33247       24.54003       58.35819
H         49.07964       24.08820       58.41375
H         49.53622       25.81507       56.79311
H         48.38916       24.70310       56.20980
H         47.88157       26.24320       56.73019
N         48.76299       27.73694       65.09591
C         47.35973       28.14888       65.11669
C         46.98261       28.87631       66.40976
O         47.84088       29.27633       67.18475
C         46.96297       29.01073       63.89926
C         47.81979       30.26027       63.63042
O         47.79997       31.17877       64.68170
O         49.15882       29.95720       63.36374
H         49.38300       28.15370       65.80748
H         46.74646       27.22918       65.14445
H         45.90516       29.33435       64.00001
H         46.98590       28.39210       63.00101
N         45.66271       29.00474       66.72956
C         45.18320       29.57074       67.97903
C         45.15626       31.08323       68.00817
O         44.69753       31.61463       69.00856
H         44.96106       28.58495       66.10223
H         45.76435       29.15757       68.83275
H         44.12752       29.25066       68.11577
N         45.57456       31.84555       66.95389
C         45.47699       33.30168       66.90190
C         44.00938       33.70557       66.93789
O         43.58220       34.32195       67.90431
C         46.31079       33.97229       68.02058
C         47.75459       33.56068       67.96468
O         48.32015       32.94885       69.02249
O         48.42354       33.78485       66.96886
H         45.94814       31.37999       66.12268
H         45.90571       33.66385       65.94471
H         45.90479       33.72428       69.02257
H         46.25163       35.07667       67.90286
N         43.13816       33.37802       65.93922
C         43.50110       32.74829       64.67969
C         44.30365       33.69941       63.82339
O         43.83772       34.80694       63.59393
H         42.14287       33.62105       66.06519
H         42.56682       32.53461       64.11608
H         44.00839       31.77513       64.84260
N         45.48945       33.32203       63.26468
C         46.24014       34.19633       62.36583
C         47.21748       33.36303       61.54935
O         48.20391       32.89231       62.09460
C         46.93015       35.33972       63.15808
C         47.64529       36.33472       62.23846
O         47.84632       34.79458       64.07420
H         45.81079       32.35373       63.41268
H         45.51077       34.63690       61.65036
H         46.14207       35.89595       63.71518
H         48.02278       35.49052       64.76023
H         48.45425       35.83669       61.66413
H         46.92024       36.79010       61.53168
H         48.09703       37.14716       62.84773
N         46.93394       33.07688       60.24092
C         47.70133       32.17573       59.38303
C         49.04984       32.75606       58.99344
O         49.87425       33.04409       59.84969
C         47.82814       30.74673       59.99495
C         46.44418       30.09888       60.27665
C         48.69940       29.82468       59.12400
C         45.57512       29.84420       59.03809
H         46.06707       33.46184       59.83597
H         47.13193       32.05989       58.43810
H         48.36055       30.81534       60.96092
H         45.87264       30.74004       60.98164
H         46.60611       29.12096       60.77487
H         48.80199       28.84081       59.61670
H         48.27980       29.69860       58.10539
H         49.72650       30.23031       59.02826
H         44.62496       29.36325       59.35100
H         45.31632       30.78827       58.51855
H         46.08027       29.15781       58.32812
N         49.34888       32.86640       57.66705
C         50.62588       33.30679       57.13093
C         50.37448       34.50851       56.23805
O         50.64209       34.46508       55.04411
C         51.34266       32.11157       56.43455
C         50.53393       31.43310       55.31170
O         51.64413       31.14987       57.41366
H         48.63516       32.58623       56.97754
H         51.30817       33.64277       57.94386
H         52.29562       32.50343       56.00855
H         52.34905       30.55912       57.03925
H         49.59842       30.98432       55.70482
H         50.28161       32.13529       54.49468
H         51.13577       30.61069       54.86965
N         49.86417       35.64555       56.78567
C         49.54821       36.84541       56.02064
C         50.56129       37.91497       56.33733
O         50.76359       38.23179       57.50314
C         48.10986       37.33579       56.29829
C         47.05781       36.33195       55.80470
O         47.92327       37.65467       57.65809
H         49.72461       35.67050       57.80857
H         49.60919       36.63816       54.92856
H         47.94880       38.26812       55.71266
H         47.70338       36.82217       58.15199
H         46.04103       36.74204       55.97999
H         47.18277       36.15696       54.71450
H         47.15323       35.36141       56.33607
N         51.26727       38.49087       55.32320
C         52.36351       39.43016       55.49946
C         53.47885       38.72076       56.25036
O         53.97556       39.22517       57.24615
C         51.89579       40.74012       56.18921
C         50.65129       41.38351       55.54707
C         50.87835       41.85958       54.10466
C         49.64689       42.57236       53.51364
N         48.49739       41.67697       53.35878
H         51.05573       38.21223       54.35133
H         52.75563       39.68198       54.49001
H         52.73297       41.47136       56.20693
H         51.62886       40.52242       57.24446
H         50.36766       42.26339       56.16503
H         49.81457       40.65630       55.58951
H         51.14957       41.00684       53.44770
H         51.72208       42.58337       54.10806
H         49.92552       42.96606       52.51133
H         49.36562       43.43900       54.15266
H         48.75691       40.85660       52.76423
H         48.14749       41.34972       54.28653
H         47.72279       42.19926       52.88900
N         53.84153       37.46481       55.85080
C         54.77075       36.62757       56.59742
C         54.60175       35.15874       56.20401
O         54.27369       34.38342       57.09176
C         56.23330       37.12533       56.49452
C         57.16441       36.32091       57.42141
C         58.59318       36.79474       57.39201
O         58.94150       37.72389       56.67973
O         59.50499       36.18040       58.16920
H         53.33447       37.05062       55.05532
H         54.48048       36.69464       57.67168
H         56.27644       38.19093       56.80450
H         56.61381       37.06264       55.45705
H         57.15312       35.25022       57.12576
H         56.79486       36.40531       58.46632
N         54.77112       34.65344       54.94488
C         55.11182       35.39826       53.74941
H         56.05926       35.00143       53.32967
H         54.30588       35.26158       52.99783
H         55.22706       36.48128       53.91420
H         54.62694       33.63970       54.81434
Ca        50.00840       31.66712       64.60455
O         51.03752       34.80719       63.34562
H         51.10451       35.34981       62.52010
H         51.67768       35.22958       63.97195
O         52.92644       31.97184       63.68597
H         52.33421       31.82205       62.90633
H         52.74330       31.20701       64.28800
O         51.92333       33.92679       66.53372
H         52.90583       34.01527       66.44682
H         51.78395       33.60133       67.45837
O         50.97410       30.77160       67.30587
H         51.01810       30.06752       66.61074
H         50.02659       31.05977       67.30934

Ca 1.0



