%chk=apoCaM-CA-Ng.loop1.water3.frame1405.chk
%nprocshared=20
%mem=10GB
%nosave
#b3lyp/svp scf=(tight,noincore,xqc) Test 
#IOP(5/87=12) Density=Current Pop=(MK,readradii) iop(6/33=2) iop(6/42=6)

apoCaM-CA-Ng.loop1.water3.frame1405 

   0  1 
C         46.27684       65.82963       94.76320
C         45.53510       66.67698       93.77201
O         45.63658       66.40770       92.58341
H         47.36692       65.89016       94.55501
H         46.09998       66.17182       95.80406
H         45.94895       64.77365       94.67160
N         44.79697       67.74782       94.18588
C         44.11831       68.65190       93.26407
C         44.83850       69.98193       93.29988
O         44.25409       71.02020       93.57797
C         42.62513       68.76504       93.61829
C         41.93607       67.43287       93.53535
O         41.89971       66.82217       92.47879
O         41.34778       66.90975       94.62788
H         44.76085       67.96995       95.19285
H         44.19867       68.28584       92.21609
H         42.12669       69.46462       92.91229
H         42.52026       69.17058       94.64860
N         46.16655       69.98472       93.01978
C         47.01197       71.16722       92.99245
C         46.55058       72.16098       91.93107
O         46.35487       73.30875       92.30573
C         48.49819       70.74733       92.85479
C         48.93359       70.02713       94.15327
C         50.35191       69.45338       94.11248
C         50.70038       68.85533       95.48893
N         52.01351       68.21483       95.48279
H         46.60612       69.07405       92.81458
H         46.94115       71.68980       93.97465
H         49.14115       71.64604       92.73118
H         48.63948       70.09423       91.96754
H         48.24687       69.18295       94.37704
H         48.86336       70.75855       94.98930
H         51.08481       70.25005       93.86162
H         50.39692       68.66070       93.33380
H         49.93520       68.10044       95.77955
H         50.69125       69.66692       96.25165
H         52.01046       67.40572       94.82027
H         52.75195       68.90128       95.20696
H         52.22122       67.86014       96.44493
N         46.29138       71.86697       90.62025
C         46.36655       70.55631       89.98030
C         44.96846       70.08609       89.58378
O         44.00812       70.82429       89.75554
C         47.35472       70.60838       88.80078
C         47.02788       71.69184       87.81428
O         45.98427       71.66845       87.18519
O         47.89026       72.70982       87.63996
H         45.95312       72.64654       90.03307
H         46.75370       69.79697       90.67601
H         47.40097       69.62880       88.28035
H         48.36471       70.81816       89.21641
N         44.77148       68.80985       89.14839
C         43.44367       68.23492       88.97647
C         42.73374       68.63063       87.69993
O         43.28713       69.33486       86.87191
H         45.58417       68.17835       89.08421
H         42.82205       68.47252       89.86646
H         43.54592       67.12882       88.93149
N         41.47195       68.15747       87.48581
C         40.72994       68.25716       86.22335
C         40.10304       66.88995       85.90470
O         40.12243       66.03060       86.77601
C         39.62297       69.31877       86.37528
C         40.20080       70.68818       86.58141
O         40.88753       71.19928       85.71177
O         39.94403       71.36826       87.71402
H         41.01827       67.66554       88.27186
H         41.41879       68.54367       85.39963
H         38.97446       69.05068       87.23788
H         38.98280       69.37130       85.47725
N         39.50572       66.55741       84.72067
C         39.46394       67.33319       83.49378
C         40.83794       67.48289       82.89549
O         41.58088       66.51213       82.85953
H         39.07007       65.62234       84.66459
H         38.93559       68.29837       83.60904
H         38.87449       66.74826       82.75368
N         41.21175       68.65604       82.31955
C         42.51290       68.84449       81.68828
C         43.59833       68.90803       82.75033
O         43.45425       69.67105       83.69258
C         42.50146       70.10274       80.78945
C         43.82932       70.28625       80.04394
O         42.21883       71.25469       81.54100
H         40.52158       69.42232       82.28570
H         42.70330       67.99808       80.98977
H         41.71897       69.94631       80.00563
H         41.30858       71.56176       81.28937
H         44.05708       69.38315       79.43673
H         43.76284       71.15843       79.36047
H         44.66595       70.45735       80.75360
N         44.72146       68.13875       82.63354
C         45.83850       68.08920       83.57989
C         46.50274       69.44969       83.75290
O         45.88281       70.36804       84.26801
C         45.42142       67.48428       84.95097
C         44.77115       66.09316       84.74572
C         46.64037       67.39988       85.89724
C         44.26687       65.44264       86.03474
H         44.80393       67.53592       81.80083
H         46.59215       67.39157       83.15048
H         44.67711       68.14969       85.41205
H         45.49305       65.40644       84.25349
H         43.89087       66.20568       84.08037
H         47.08872       68.40136       86.06106
H         46.35046       67.03279       86.90093
H         47.41767       66.72913       85.47340
H         43.53449       66.10371       86.54142
H         43.76539       64.48384       85.78733
H         45.10173       65.21092       86.72611
N         47.80335       69.62186       83.38742
C         48.53687       70.86313       83.60435
C         48.94133       71.52241       82.30169
O         49.54668       72.58223       82.38530
C         49.75561       70.62688       84.53244
C         50.77253       69.62149       83.98583
O         49.30845       70.17465       85.78497
H         48.30017       68.83431       82.94755
H         47.89361       71.61218       84.11901
H         50.29767       71.59846       84.64932
H         49.37944       70.93672       86.41627
H         51.15183       69.94380       82.99405
H         51.63179       69.55132       84.68622
H         50.32610       68.60977       83.89926
N         48.62474       71.01035       81.07023
C         48.91951       71.74215       79.83883
C         48.13155       73.04154       79.87432
O         46.92034       73.01517       79.70118
C         48.59564       70.90919       78.57206
C         49.50762       69.67857       78.46939
O         47.24971       70.50266       78.59366
H         48.13458       70.10724       81.00433
H         50.00928       71.97013       79.82334
H         48.78062       71.55488       77.68217
H         47.02684       70.18533       77.67984
H         50.57170       69.99416       78.42643
H         49.36915       68.99946       79.33637
H         49.27589       69.11273       77.54225
N         48.75390       74.18907       80.27711
C         48.07639       75.43513       80.62851
C         47.06425       75.23230       81.75341
O         46.70945       74.10660       82.07145
C         47.47336       76.12645       79.39050
C         48.59793       76.56393       78.43827
C         48.06387       77.20917       77.15711
C         49.23045       77.72674       76.30132
N         48.75499       78.27904       75.03458
H         49.77115       74.16091       80.44537
H         48.84992       76.11504       81.05292
H         46.91593       77.03696       79.70234
H         46.76202       75.44426       78.87827
H         49.22023       75.68716       78.15476
H         49.24096       77.29649       78.97578
H         47.39440       78.06080       77.40822
H         47.48329       76.45069       76.58774
H         49.94213       76.89777       76.09002
H         49.77438       78.51724       76.86672
H         48.29845       77.52690       74.46914
H         48.07635       79.05535       75.20802
H         49.57155       78.65423       74.49956
N         46.62373       76.30512       82.46864
C         45.69742       76.18686       83.59439
C         46.17473       75.16205       84.62178
O         45.40749       74.25066       84.89279
C         45.43007       77.54563       84.28313
C         44.74690       78.56079       83.35220
C         44.47319       79.87306       84.03883
O         43.92567       80.77071       83.41976
O         44.82721       80.07875       85.32370
H         46.99858       77.23278       82.22217
H         44.71748       75.82843       83.20372
H         46.37093       77.98087       84.67490
H         44.75061       77.36853       85.14728
H         43.78168       78.13654       83.00025
H         45.38611       78.76667       82.46968
N         47.38866       75.17859       85.24510
C         48.46038       76.12615       85.03284
H         49.36268       75.57465       84.69426
H         48.23369       76.89092       84.27477
H         48.69182       76.63205       85.99295
H         47.58356       74.42941       85.92244
Ca        43.65166       71.98560       85.54770
O         43.92585       73.04286       82.76721
H         43.93542       73.63699       81.97599
H         44.53000       72.29569       82.52790
O         41.91749       74.38508       84.94468
H         41.30955       74.39536       84.16338
H         42.34227       75.27943       84.94398
O         42.68579       73.47109       87.96803
H         43.20658       73.02247       88.67931
H         41.74102       73.32768       88.22498

Ca 1.0



