%chk=apoCaM-CA-Ng.loop2.water5.frame1107.chk
%nprocshared=20
%mem=10GB
%nosave
#b3lyp/svp scf=(tight,noincore,xqc) Test 
#IOP(5/87=12) Density=Current Pop=(MK,readradii) iop(6/33=2) iop(6/42=6)

apoCaM-CA-Ng.loop2.water5.frame1107 

   -2  1 
C         48.96153      -19.27276       59.48454
C         50.30287      -19.94912       59.55895
O         51.23794      -19.33164       60.04690
H         48.22128      -19.85380       60.07538
H         49.01571      -18.24856       59.91144
H         48.62526      -19.19570       58.43038
N         50.50531      -21.22952       59.13574
C         49.48449      -22.08228       58.53756
C         49.96339      -22.56367       57.16640
O         50.37086      -21.72176       56.37871
C         49.09531      -23.17013       59.56985
C         50.27096      -23.93370       60.13265
O         50.95957      -24.64797       59.42533
O         50.57091      -23.81823       61.44000
H         51.44185      -21.63743       59.27337
H         48.55774      -21.50826       58.33673
H         48.33178      -23.86284       59.15856
H         48.61761      -22.64352       60.42498
N         49.92894      -23.87888       56.79617
C         50.40950      -24.40892       55.52432
C         51.90524      -24.19453       55.37302
O         52.36463      -23.72157       54.34207
C         49.58851      -23.88022       54.33788
H         49.54814      -24.57872       57.44420
H         50.25875      -25.51170       55.55183
H         49.70116      -22.78374       54.21666
H         49.91941      -24.37107       53.39742
H         48.51378      -24.11478       54.49093
N         52.72678      -24.54478       56.39941
C         54.17655      -24.48555       56.35520
C         54.79893      -25.85819       56.77075
O         54.13087      -26.59535       57.76332
C         54.73577      -23.16911       57.00060
C         54.03663      -22.46459       58.16044
O         53.88858      -23.01446       59.37914
O         53.66886      -21.31041       58.00284
H         52.29870      -24.87466       57.27491
H         54.53011      -24.40240       55.30204
H         54.69774      -22.41381       56.18100
H         55.81546      -23.29049       57.22480
N         56.25715      -25.78522       56.94114
C         56.81936      -26.44392       58.13131
C         58.12275      -25.80516       58.55228
O         58.62908      -26.16618       59.60505
H         56.72930      -26.12063       56.07002
H         56.94626      -27.53435       57.95356
H         56.15087      -26.30714       58.99975
N         58.72067      -24.84111       57.79592
C         59.92152      -24.11873       58.19059
C         59.66204      -22.61959       58.10170
O         58.55393      -22.21306       57.77551
C         61.07925      -24.54850       57.26749
C         61.41106      -26.00703       57.47611
N         61.29855      -26.89977       56.46655
O         61.78976      -26.38517       58.57546
H         58.32480      -24.59508       56.87715
H         60.21188      -24.34856       59.24009
H         62.00031      -23.97294       57.49219
H         60.80088      -24.34967       56.20946
H         60.98025      -26.60593       55.53239
H         61.52860      -27.89264       56.62281
N         60.66317      -21.73423       58.36001
C         60.51792      -20.29151       58.24683
C         61.37317      -19.76451       57.11096
O         61.95817      -20.56497       56.39375
H         61.59373      -22.09092       58.62247
H         60.83754      -19.84489       59.21216
H         59.46567      -19.99120       58.05152
N         61.53087      -18.43286       56.85866
C         60.96138      -17.34981       57.65598
C         60.12444      -16.43300       56.76595
O         60.15538      -16.58444       55.55185
C         62.15689      -16.62145       58.33606
C         61.78566      -15.46289       59.26080
O         62.87819      -17.55539       59.10225
H         62.14875      -18.16707       56.07450
H         60.29227      -17.75278       58.44268
H         62.81734      -16.19181       57.54353
H         63.61652      -17.90071       58.53437
H         61.10139      -15.81083       60.06362
H         62.70823      -15.06134       59.73191
H         61.33101      -14.62553       58.69769
N         59.33336      -15.46241       57.31402
C         58.57483      -14.49381       56.53061
C         59.14356      -13.11750       56.86733
O         59.13576      -12.78825       58.04617
C         57.04723      -14.52699       56.85948
C         56.35518      -15.89304       56.60462
C         56.33216      -13.47354       55.99043
C         56.69245      -16.98919       57.61683
H         59.28025      -15.38604       58.34030
H         58.67630      -14.72677       55.45890
H         56.87995      -14.24927       57.92437
H         56.55785      -16.24391       55.56941
H         55.25672      -15.74389       56.70409
H         55.24465      -13.44699       56.21475
H         56.72364      -12.45185       56.17808
H         56.47295      -13.71451       54.91549
H         56.07090      -17.88381       57.40174
H         57.74451      -17.31152       57.56702
H         56.45887      -16.64144       58.64601
N         59.67451      -12.23725       55.96544
C         59.74091      -12.36366       54.50868
C         59.11911      -11.12959       53.85333
O         58.63835      -10.25884       54.56826
C         61.21768      -12.55419       54.07679
C         62.12002      -11.38215       54.37710
O         62.67543      -10.79283       53.46366
O         62.35904      -11.00250       55.64645
H         60.06765      -11.37087       56.36488
H         59.18947      -13.24342       54.13942
H         61.24988      -12.75210       52.98448
H         61.62903      -13.45796       54.57600
N         59.16173      -10.95142       52.49787
C         58.79945       -9.68638       51.86471
C         58.02585       -9.90002       50.56056
O         58.50931      -10.67572       49.74541
C         60.11270       -8.94651       51.51881
C         59.85069       -7.49706       51.19957
C         59.90957       -7.01724       49.88220
C         59.53234       -6.60927       52.24371
C         59.63882       -5.67034       49.61479
C         59.27643       -5.26374       51.97377
C         59.32496       -4.79484       50.65934
H         59.61715      -11.66972       51.91586
H         58.24588       -9.04662       52.57908
H         60.62130       -9.47026       50.67869
H         60.81977       -8.96665       52.37703
H         60.14374       -7.68611       49.06392
H         59.48884       -6.96112       53.26770
H         59.66956       -5.30448       48.59716
H         59.03791       -4.58680       52.78422
H         59.11893       -3.75302       50.45155
N         56.91297       -9.17528       50.20694
C         56.31031       -8.11463       50.99681
C         55.50564       -8.64466       52.15884
O         55.81345       -8.30966       53.29404
C         55.42565       -7.34354       49.99599
C         56.12034       -7.63675       48.67691
C         56.41792       -9.12187       48.84682
H         57.11556       -7.42682       51.32202
H         54.41938       -7.80532       49.90429
H         55.27700       -6.27102       50.24401
H         55.52175       -7.38497       47.77596
H         57.08374       -7.07915       48.64528
H         55.46874       -9.70021       48.78513
H         57.13065       -9.49620       48.08069
N         54.42685       -9.45412       51.93474
C         53.55860       -9.94225       52.98888
C         52.18742       -9.30874       52.79849
O         51.55946       -9.57976       51.78406
C         53.42783      -11.48515       52.96785
C         54.75530      -12.24571       53.14128
C         55.63380      -12.32919       51.91695
O         55.27854      -11.88058       50.83961
O         56.80958      -12.97905       51.99924
H         54.17095       -9.69630       50.96660
H         53.97789       -9.66629       53.97619
H         52.91392      -11.84930       52.05072
H         52.78271      -11.74769       53.83580
H         54.51284      -13.29754       53.40540
H         55.31759      -11.79026       53.98216
N         51.63932       -8.43425       53.68936
C         52.29808       -7.99395       54.89915
H         53.25530       -7.48889       54.64692
H         51.65289       -7.26603       55.43506
H         52.48614       -8.85765       55.57051
H         50.70750       -8.04118       53.48358
Ca        53.99133      -25.19120       59.48147
O         52.77819      -27.99472       60.21404
H         53.32753      -28.68193       60.66812
H         51.84288      -28.26870       60.38766
O         53.47396      -24.11816       63.23410
H         52.75435      -23.45078       63.36527
H         53.44482      -24.67749       64.05081
O         54.98383      -26.84139       62.29022
H         55.81140      -26.57475       62.76383
H         54.52566      -27.45530       62.91770
O         51.26110      -26.41763       62.54235
H         51.45633      -27.25557       63.03138
H         50.37563      -26.57207       62.12642
O         56.58376      -24.24016       61.09841
H         56.80909      -23.42619       60.58164
H         56.84196      -24.02523       62.02975

Ca 1.0



