%chk=apoCaM-CA-Ng.loop2.water3.frame254.chk
%nprocshared=20
%mem=10GB
%nosave
#b3lyp/svp scf=(tight,noincore,xqc) Test 
#IOP(5/87=12) Density=Current Pop=(MK,readradii) iop(6/33=2) iop(6/42=6)

apoCaM-CA-Ng.loop2.water3.frame254 

   -2  1 
C         47.05145       16.39567       -4.64886
C         48.01814       15.24972       -4.55390
O         48.77156       15.18053       -3.59360
H         46.01266       16.00273       -4.64097
H         47.17313       17.09121       -3.79081
H         47.21846       16.95895       -5.59112
N         48.05100       14.30933       -5.53860
C         48.92328       13.13994       -5.52520
C         49.94055       13.25043       -6.64580
O         49.56991       13.53777       -7.77633
C         48.07499       11.86577       -5.65502
C         48.93378       10.63068       -5.60803
O         48.94397        9.85356       -6.54888
O         49.70079       10.37958       -4.52911
H         47.42093       14.43021       -6.34770
H         49.46995       13.07076       -4.55837
H         47.49763       11.89184       -6.60527
H         47.35414       11.82134       -4.80972
N         51.26234       13.03405       -6.38379
C         52.32355       13.26529       -7.35769
C         52.37478       14.74796       -7.64659
O         52.25907       15.52990       -6.71125
C         53.66587       12.77660       -6.81377
H         51.52846       12.72524       -5.43596
H         52.12814       12.68251       -8.28672
H         54.46175       12.94310       -7.57129
H         53.93451       13.30167       -5.87421
H         53.60400       11.68407       -6.61443
N         52.48220       15.21101       -8.92113
C         52.19579       16.59622       -9.26957
C         53.42774       17.39634       -9.67555
O         53.25366       18.56321       -9.98979
C         51.12152       16.55732      -10.37958
C         50.44013       17.86062      -10.69113
O         50.67546       18.97689       -9.97389
O         49.61690       17.89056      -11.59060
H         52.66542       14.54132       -9.68520
H         51.76051       17.12145       -8.39070
H         50.31299       15.85872      -10.06861
H         51.58839       16.15431      -11.30512
N         54.69888       16.88987       -9.67416
C         55.84252       17.72469      -10.02819
C         56.02273       18.83997       -9.01549
O         56.52526       18.58264       -7.93125
H         54.86749       15.90315       -9.43101
H         55.67271       18.14018      -11.04607
H         56.77742       17.12508      -10.07353
N         55.53540       20.08705       -9.28071
C         55.54818       21.21058       -8.34407
C         55.06531       20.81412       -6.95478
O         53.97585       20.27596       -6.81273
C         54.63118       22.33444       -8.88082
C         54.47080       23.46507       -7.88976
N         53.26157       23.71567       -7.33068
O         55.43967       24.13662       -7.56918
H         55.06808       20.22963      -10.18935
H         56.58578       21.60343       -8.26197
H         53.63051       21.89211       -9.08196
H         55.02495       22.72990       -9.84209
H         52.43825       23.14452       -7.57369
H         53.14691       24.46760       -6.63568
N         55.83177       21.14214       -5.87612
C         55.46427       20.90418       -4.49304
C         55.29808       22.21498       -3.75288
O         55.28836       23.27182       -4.37049
H         56.72706       21.63031       -6.03273
H         56.28121       20.31633       -4.02374
H         54.52035       20.32483       -4.39814
N         55.17300       22.21256       -2.39787
C         54.95572       23.42904       -1.61503
C         53.58284       24.01159       -1.93300
O         53.46821       25.21017       -2.14417
C         55.16523       23.19026       -0.09043
C         54.18250       22.22231        0.58311
O         56.49154       22.78884        0.15845
H         55.24104       21.30497       -1.91492
H         55.73602       24.17823       -1.88133
H         55.03172       24.17095        0.41743
H         56.60096       21.85568       -0.16079
H         54.23448       21.20752        0.13958
H         54.42900       22.14270        1.66375
H         53.15018       22.60772        0.50497
N         52.51254       23.17853       -2.05889
C         51.15894       23.58224       -2.43769
C         50.83828       23.05409       -3.83346
O         51.72316       22.49584       -4.47030
C         50.14034       23.14659       -1.33257
C         50.27910       21.68342       -0.82801
C         50.26392       24.09900       -0.13137
C         50.13886       20.61297       -1.90709
H         52.68212       22.17031       -1.93668
H         51.08030       24.68678       -2.55143
H         49.10737       23.28630       -1.71055
H         49.48906       21.50006       -0.06774
H         51.25342       21.53997       -0.31803
H         50.07309       25.14614       -0.45319
H         49.50964       23.84672        0.64407
H         51.27521       24.05005        0.32083
H         50.21501       19.61147       -1.43272
H         49.15678       20.69908       -2.41493
H         50.95464       20.68231       -2.65266
N         49.60226       23.23228       -4.39571
C         49.30559       22.88169       -5.78167
C         48.63445       24.07619       -6.46089
O         47.60957       23.91906       -7.10664
C         48.44400       21.59767       -5.80691
C         48.24030       21.00621       -7.17955
O         48.74273       21.51217       -8.17102
O         47.51301       19.88061       -7.30954
H         48.84452       23.65555       -3.84072
H         50.25442       22.66441       -6.31795
H         47.45632       21.80692       -5.34061
H         48.95512       20.82020       -5.19845
N         49.14281       25.32826       -6.28053
C         48.54923       26.55624       -6.81526
C         47.07463       26.67634       -6.44121
O         46.76321       26.55741       -5.26311
C         49.34975       27.77201       -6.27278
C         48.84563       29.12788       -6.73095
C         49.60511       29.89515       -7.63121
C         47.63436       29.65937       -6.24243
C         49.15427       31.15262       -8.04653
C         47.18874       30.91556       -6.65930
C         47.94654       31.66118       -7.56276
H         49.98330       25.41525       -5.68806
H         48.66389       26.55263       -7.91714
H         50.39914       27.63531       -6.61573
H         49.36656       27.76686       -5.16039
H         50.54463       29.52015       -8.01649
H         47.03324       29.11722       -5.52748
H         49.74328       31.73470       -8.74275
H         46.25713       31.31255       -6.27602
H         47.60043       32.63541       -7.88257
N         46.11028       26.98878       -7.36977
C         44.72685       27.27479       -7.02253
C         43.87900       26.01997       -6.88723
O         42.71847       26.14541       -6.52263
C         44.25633       28.14408       -8.19486
C         44.97508       27.49451       -9.36238
C         46.36490       27.25852       -8.77456
H         44.65745       27.86644       -6.08264
H         43.15517       28.24788       -8.30254
H         44.69262       29.16278       -8.07415
H         44.49241       26.50736       -9.54388
H         44.97184       28.06698      -10.31435
H         46.85462       26.41354       -9.30459
H         46.98767       28.17709       -8.84650
N         44.36778       24.78336       -7.19121
C         43.56387       23.57224       -7.06936
C         43.31443       23.20745       -5.61254
O         42.52762       22.30149       -5.37025
C         44.27326       22.37876       -7.73712
C         44.51709       22.58211       -9.23985
C         45.31230       21.42952       -9.76535
O         46.55168       21.64201      -10.23887
O         44.86925       20.29279       -9.71349
H         45.32316       24.70507       -7.55619
H         42.59247       23.73895       -7.58776
H         43.65757       21.46034       -7.60788
H         45.24960       22.21995       -7.22509
H         45.10164       23.50865       -9.41671
H         43.55460       22.66758       -9.78852
N         43.98042       23.81692       -4.58958
C         43.78840       23.42510       -3.21167
H         42.73283       23.59211       -2.91237
H         44.04780       22.35172       -3.08606
H         44.45050       24.02619       -2.55281
H         44.67217       24.55598       -4.77755
Ca        47.84390       19.86172      -10.66502
O         46.73978       17.19804       -9.35302
H         45.91460       16.91994       -9.82460
H         47.31008       16.38858       -9.35049
O         46.14718       18.34903      -12.52982
H         46.90747       18.57334      -13.12354
H         45.52910       19.11770      -12.61738
O         49.72804       21.46408      -12.34791
H         49.86730       21.94755      -11.49494
H         50.28999       20.65290      -12.26723

Ca 1.0



