%chk=apoCaM-CA-Ng.loop3.water6.frame325.chk
%nprocshared=20
%mem=10GB
%nosave
#b3lyp/svp scf=(tight,noincore,xqc) Test 
#IOP(5/87=12) Density=Current Pop=(MK,readradii) iop(6/33=2) iop(6/42=6)

apoCaM-CA-Ng.loop3.water6.frame325 

   0  1 
C         50.39662       47.89434       52.26709
C         50.97227       46.91143       51.29352
O         50.21872       46.13940       50.72175
H         49.29324       47.77692       52.33784
H         50.83721       47.72280       53.27138
H         50.62529       48.92799       51.93477
N         52.31859       46.88692       51.05880
C         52.98776       45.96749       50.13746
C         52.91767       44.50874       50.60779
O         53.32884       43.62928       49.86365
C         52.42946       46.16115       48.70385
C         53.29136       45.50561       47.66007
O         54.57503       45.88707       47.51168
O         52.83006       44.64329       46.92993
H         52.90893       47.57358       51.55303
H         54.06463       46.24706       50.10874
H         52.40828       47.24652       48.46629
H         51.39249       45.77007       48.63142
N         52.44174       44.17430       51.84444
C         52.28284       42.79309       52.29963
C         51.26147       42.06182       51.44013
O         51.40261       40.87208       51.19745
C         51.84624       42.75511       53.78920
C         50.42351       43.29764       54.04238
C         50.07947       43.33004       55.53307
C         48.62553       43.78262       55.73554
N         48.29141       43.86137       57.15617
H         52.18083       44.92538       52.49622
H         53.26948       42.28061       52.24226
H         52.58418       43.34052       54.38097
H         51.88206       41.70300       54.14913
H         49.69059       42.63792       53.53067
H         50.32024       44.32733       53.63992
H         50.76794       44.03490       56.04867
H         50.20724       42.31625       55.97139
H         47.94309       43.05680       55.23798
H         48.47199       44.78137       55.26898
H         47.28899       44.14205       57.25554
H         48.43001       42.93068       57.61251
H         48.89164       44.57891       57.62380
N         50.17463       42.74553       50.98585
C         49.06455       42.18180       50.23441
C         49.54928       41.55585       48.94496
O         50.30874       42.19066       48.22542
C         48.04765       43.30955       49.95268
C         46.73482       42.80067       49.44091
O         45.62180       43.00635       50.16960
O         46.66010       42.21346       48.37535
H         50.11981       43.74489       51.21895
H         48.55916       41.42123       50.87034
H         48.47749       44.05625       49.24868
H         47.83348       43.83111       50.91191
N         49.13036       40.30960       48.58229
C         49.59188       39.64140       47.37905
C         49.32412       40.46013       46.13793
O         50.27926       40.85081       45.48058
H         48.46067       39.80834       49.18565
H         49.09423       38.65086       47.28276
H         50.68477       39.46304       47.47645
N         48.05278       40.74196       45.73445
C         47.78285       41.50730       44.51778
C         48.16150       42.98056       44.64615
O         48.22525       43.64182       43.61958
C         46.30857       41.37732       44.10069
C         45.94870       39.95104       43.76323
N         46.53603       39.31916       42.71927
O         45.11100       39.36395       44.43007
H         47.26717       40.35034       46.27576
H         48.40756       41.07674       43.70382
H         46.09941       42.00068       43.20430
H         45.68199       41.74125       44.93793
H         47.23289       39.80079       42.13269
H         46.28579       38.34653       42.48776
N         48.43151       43.56483       45.85068
C         48.94631       44.91912       45.98463
C         48.05766       45.86799       46.76093
O         48.53862       46.95942       47.03863
H         48.32635       43.02197       46.71489
H         49.15569       45.38711       44.99913
H         49.91585       44.84043       46.52201
N         46.76510       45.58861       47.11341
C         45.95899       46.55488       47.86376
C         44.48013       46.18733       47.87958
O         44.13323       45.07076       48.24067
C         46.47887       46.68813       49.31661
C         45.79195       47.81271       50.05967
C         45.93947       49.14199       49.62332
C         45.00769       47.54975       51.19478
C         45.30846       50.18625       50.30426
C         44.37798       48.59728       51.87555
C         44.52446       49.91943       51.42997
O         43.91684       50.93798       52.07149
H         46.33904       44.70104       46.80752
H         46.05547       47.54101       47.35822
H         47.56697       46.90361       49.33293
H         46.32725       45.71974       49.83847
H         46.54481       49.37265       48.75598
H         44.87894       46.53578       51.55168
H         45.42851       51.20426       49.95487
H         43.77227       48.38022       52.74623
H         43.35863       50.79743       52.84943
N         43.54661       47.13439       47.57153
C         42.10421       46.90533       47.61663
C         41.66206       46.05502       46.43442
O         40.78655       45.22346       46.61924
C         41.32930       48.25869       47.71897
C         41.71405       49.05605       49.00386
C         39.79971       48.07220       47.66758
C         41.34121       48.38268       50.33516
H         43.87941       48.08570       47.34939
H         41.85231       46.34207       48.54025
H         41.60860       48.88443       46.84224
H         41.20478       50.04368       48.97488
H         42.80461       49.25614       49.01283
H         39.48710       47.63120       46.70450
H         39.44049       47.40519       48.47748
H         39.29133       49.05662       47.75548
H         41.63316       49.04427       51.17655
H         40.24788       48.21854       50.41644
H         41.86916       47.41731       50.47013
N         42.24697       46.16604       45.20382
C         41.89485       45.26746       44.10213
C         40.48162       45.46659       43.58099
O         40.03444       44.61668       42.82083
C         42.89329       45.39294       42.94133
O         44.18861       45.11229       43.39695
H         43.01143       46.84524       45.07420
H         41.95896       44.22907       44.48680
H         42.85844       46.42324       42.52428
H         42.61286       44.65963       42.14932
H         44.74876       44.98326       42.58809
N         39.71493       46.54055       43.93135
C         38.33968       46.73973       43.49041
C         37.46947       45.59517       43.97931
O         36.84092       44.92094       43.17596
C         38.27341       46.93351       41.96287
H         40.11207       47.26205       44.54858
H         37.95479       47.67575       43.95157
H         37.22925       47.14784       41.65060
H         38.91160       47.79085       41.66211
H         38.61513       46.03292       41.41242
N         37.42143       45.30794       45.31355
C         36.66863       44.18739       45.85848
C         35.67944       44.66711       46.89826
O         36.10053       45.17193       47.92955
C         37.64172       43.18715       46.48809
H         37.97211       45.88558       45.96558
H         36.12037       43.65457       45.05252
H         38.22122       43.66807       47.30609
H         37.08890       42.31796       46.90331
H         38.35728       42.82238       45.72084
N         34.33519       44.53475       46.68769
C         33.31617       44.88821       47.67174
C         33.47286       46.33241       48.11774
O         33.63566       46.59004       49.30387
C         33.35005       43.88954       48.85854
C         33.09758       42.42082       48.46035
C         31.68448       42.15196       48.00930
O         31.23938       42.66478       46.99574
O         30.90794       41.30865       48.71693
H         34.00821       44.15996       45.78475
H         32.31811       44.81571       47.19476
H         32.59405       44.17612       49.62251
H         34.34993       43.94339       49.33956
H         33.28450       41.79663       49.36072
H         33.81368       42.09863       47.67415
N         33.43603       47.33340       47.19597
C         33.58485       48.73483       47.53451
H         34.47012       49.14759       47.00758
H         32.67970       49.28933       47.21116
H         33.72204       48.89727       48.62471
H         33.30130       47.09444       46.20180
Ca        43.65575       41.86044       48.52795
O         43.69378       43.04963       45.90221
H         43.48316       42.53703       45.08133
H         44.39183       43.69403       45.62536
O         42.56141       39.83699       46.58562
H         42.05716       39.85809       45.73433
H         43.47632       40.12130       46.33739
O         42.61534       39.80539       50.39135
H         43.44897       39.64384       50.90060
H         42.24331       40.63595       50.78193
O         41.06575       42.65272       47.61406
H         40.44700       41.94580       47.30503
H         40.54820       43.16622       48.28366
O         45.55567       39.50045       48.14208
H         45.89975       39.39833       49.06463
H         45.38906       38.57606       47.83078
O         42.39868       43.72496       50.69380
H         42.72678       43.41203       51.57395
H         41.49872       43.32136       50.60840

Ca 1.0



