%chk=apoCaM-CA-Ng.loop3.water3.frame516.chk
%nprocshared=20
%mem=10GB
%nosave
#b3lyp/svp scf=(tight,noincore,xqc) Test 
#IOP(5/87=12) Density=Current Pop=(MK,readradii) iop(6/33=2) iop(6/42=6)

apoCaM-CA-Ng.loop3.water3.frame516 

   0  1 
C         77.30889       59.49635       58.27093
C         77.16699       58.11880       58.84264
O         76.26928       57.39267       58.43869
H         78.30386       59.59306       57.78714
H         76.52311       59.69004       57.50971
H         77.21985       60.24926       59.08109
N         78.04600       57.68114       59.78665
C         77.99436       56.33546       60.34246
C         76.68984       56.13723       61.09631
O         76.44448       56.84745       62.06216
C         79.21336       56.09274       61.25998
C         79.38269       54.65530       61.67103
O         80.32214       54.33895       62.38267
O         78.53528       53.70493       61.23547
H         78.79855       58.32119       60.08583
H         78.06897       55.62149       59.49300
H         79.14278       56.74085       62.16045
H         80.13334       56.37220       60.70728
N         75.78821       55.20446       60.67942
C         74.48740       55.01723       61.31808
C         74.58551       54.62619       62.78401
O         73.65390       54.93162       63.51589
C         73.59840       54.00695       60.54969
C         74.21099       52.59779       60.43994
C         73.28192       51.62997       59.69778
C         73.97459       50.27538       59.48434
N         73.09018       49.32878       58.80702
H         76.02343       54.65199       59.84325
H         73.95905       55.99690       61.27684
H         73.42514       54.39816       59.52289
H         72.61041       53.94093       61.05771
H         74.42013       52.18793       61.45029
H         75.16168       52.65849       59.87904
H         73.01571       52.05235       58.70391
H         72.35054       51.49170       60.28941
H         74.28540       49.84994       60.46415
H         74.88550       50.42679       58.86371
H         72.78824       49.71266       57.88213
H         73.60731       48.43368       58.64832
H         72.25230       49.13484       59.40182
N         75.63044       53.89438       63.27114
C         75.70431       53.45018       64.66173
C         76.97105       53.91501       65.37966
O         77.08138       53.64052       66.56350
C         75.47629       51.92382       64.71901
C         76.45396       51.10331       63.92483
O         77.74271       51.03724       64.28896
O         76.06902       50.44710       62.97024
H         76.37046       53.59065       62.62280
H         74.86842       53.89050       65.24847
H         74.45897       51.73614       64.30908
H         75.48034       51.57318       65.77317
N         77.92884       54.67433       64.76969
C         79.09239       55.23682       65.45049
C         80.17417       54.25340       65.87823
O         81.18519       54.72619       66.37788
H         77.79437       54.95472       63.79119
H         78.75583       55.82792       66.33013
H         79.58609       55.94383       64.74782
N         80.06281       52.90178       65.72365
C         81.11751       51.95383       66.08819
C         81.51561       51.09772       64.88847
O         80.89109       51.17080       63.84084
C         80.65229       51.01875       67.23455
C         80.44653       51.71786       68.55903
N         79.45751       52.62011       68.73607
O         81.17451       51.43826       69.50012
H         79.19917       52.52078       65.33480
H         82.03097       52.49184       66.42470
H         81.43822       50.25212       67.40404
H         79.72418       50.47981       66.94357
H         78.81368       52.84560       67.97366
H         79.32027       53.07770       69.64925
N         82.57124       50.24168       65.00067
C         82.99555       49.29741       63.97908
C         83.38672       49.95649       62.67997
O         84.14358       50.91690       62.69899
H         83.10677       50.23556       65.88179
H         82.20128       48.53890       63.81019
H         83.88933       48.76026       64.36396
N         82.96522       49.42722       61.49312
C         83.35466       49.97765       60.19806
C         82.66702       51.30286       59.92948
O         81.84418       51.73634       60.72519
C         83.08359       48.95476       59.06836
C         84.01387       47.76673       59.17927
C         85.39920       47.94583       59.00404
C         83.52106       46.47844       59.44318
C         86.27377       46.86120       59.09706
C         84.40068       45.39283       59.53975
C         85.78057       45.58223       59.36680
O         86.63990       44.54684       59.45531
H         82.40277       48.56256       61.51523
H         84.44734       50.18453       60.21453
H         83.25883       49.40361       58.06807
H         82.01934       48.64251       59.10929
H         85.80478       48.92649       58.78805
H         82.45996       46.31371       59.57977
H         87.33671       47.01649       58.95778
H         84.00972       44.40518       59.74835
H         86.34359       43.64466       59.64104
N         83.04409       52.03738       58.84306
C         82.62998       53.40612       58.54724
C         81.14531       53.52002       58.20182
O         80.31287       53.19078       59.02978
C         82.99176       54.37639       59.72416
C         82.77345       55.87044       59.35670
C         84.42155       54.15641       60.25693
C         83.71210       56.42179       58.27624
H         83.76283       51.63819       58.21846
H         83.22140       53.72292       57.66410
H         82.31118       54.16011       60.57410
H         82.91715       56.48476       60.27237
H         81.72869       56.02112       59.02061
H         85.18071       54.30240       59.46301
H         84.62538       54.85627       61.09583
H         84.54232       53.13009       60.65960
H         83.59140       55.88531       57.31475
H         83.47641       57.49173       58.09938
H         84.77140       56.36372       58.60060
N         80.75674       54.10021       57.02509
C         79.37530       54.50822       56.75451
C         78.82519       54.02716       55.41499
O         77.71435       54.43410       55.08742
C         79.33484       56.04720       56.79710
O         80.15521       56.58856       55.79719
H         81.48262       54.39947       56.35818
H         78.68915       54.14620       57.54883
H         79.69130       56.38190       57.79633
H         78.29091       56.40414       56.65539
H         80.20415       57.56312       55.97749
N         79.50552       53.19077       54.58154
C         79.03965       52.85491       53.23520
C         78.71003       51.37276       53.12195
O         79.55468       50.58104       53.52179
C         80.12906       53.21492       52.22533
H         80.40772       52.79465       54.89051
H         78.17639       53.48290       52.97302
H         79.77668       52.99510       51.19394
H         80.36468       54.29811       52.29356
H         81.05567       52.63352       52.42086
N         77.55847       50.86236       52.57746
C         76.45582       51.60134       51.95855
C         76.30047       51.15296       50.50330
O         76.09655       49.96296       50.30981
C         75.15801       51.31286       52.72007
H         77.46696       49.83370       52.57088
H         76.59069       52.67475       52.03052
H         74.91944       50.22756       52.70874
H         75.25501       51.64414       53.77559
H         74.31276       51.86651       52.25574
N         76.34296       51.97855       49.40668
C         76.55715       53.42408       49.38388
C         77.74870       53.81935       48.51430
O         78.02508       55.00821       48.43904
C         75.29068       54.11768       48.83852
C         74.05337       53.83278       49.70095
C         72.85066       54.55435       49.16460
O         72.21365       55.46282       49.92764
O         72.43989       54.31709       48.03948
H         76.16808       51.53374       48.49041
H         76.76034       53.83480       50.38406
H         75.10227       53.77454       47.79624
H         75.45613       55.21826       48.81983
H         74.24808       54.16850       50.74261
H         73.83554       52.74344       49.71429
N         78.49288       52.90484       47.82137
C         79.59994       53.27451       46.95934
H         80.52666       52.77798       47.31352
H         79.38466       52.93743       45.92314
H         79.77714       54.37035       46.93359
H         78.27829       51.90126       47.87930
Ca        78.91766       51.54120       61.72110
O         77.41041       51.54984       59.18601
H         77.30473       51.07664       58.32361
H         77.48138       52.50549       58.93934
O         79.65391       49.59467       59.59659
H         79.28657       48.67763       59.65861
H         79.66873       49.79429       58.62698
O         79.35445       48.69608       62.78053
H         79.43322       48.39219       63.71945
H         80.01424       48.14946       62.28490

Ca 1.0



