%chk=apoCaM-CA-Ng.loop4.water5.frame837.chk
%nprocshared=20
%mem=10GB
%nosave
#b3lyp/svp scf=(tight,noincore,xqc) Test 
#IOP(5/87=12) Density=Current Pop=(MK,readradii) iop(6/33=2) iop(6/42=6)

apoCaM-CA-Ng.loop4.water5.frame837 

   -3  1 
C         67.67530      -24.56718       59.04412
C         68.58602      -25.26052       58.06998
O         69.62771      -25.76397       58.46132
H         66.69387      -25.08847       59.05725
H         68.09679      -24.58087       60.07063
H         67.50104      -23.51807       58.73595
N         68.21743      -25.34618       56.76518
C         68.92479      -26.09880       55.73110
C         68.91846      -27.58246       56.07581
O         69.93774      -28.25200       55.97526
C         70.34093      -25.54618       55.43936
C         70.31221      -24.05331       55.31767
O         70.94317      -23.38308       56.12078
O         69.50202      -23.42787       54.44089
H         67.33586      -24.88762       56.48385
H         68.32562      -25.97959       54.80023
H         70.74601      -26.00379       54.51206
H         71.02325      -25.80688       56.27858
N         67.76344      -28.14754       56.52618
C         67.60613      -29.56501       56.84186
C         67.71390      -30.38271       55.55695
O         67.04802      -30.02184       54.59714
C         66.25461      -29.83396       57.59061
C         64.98485      -29.34240       56.84512
C         66.34038      -29.24573       59.01628
C         63.69972      -29.92441       57.43485
H         66.95850      -27.52166       56.65674
H         68.40986      -29.86832       57.54375
H         66.14745      -30.92927       57.69368
H         65.00633      -29.68098       55.79304
H         64.91713      -28.23475       56.85328
H         65.45306      -29.50771       59.62410
H         67.22235      -29.66291       59.55030
H         66.44248      -28.14011       58.98862
H         63.73059      -31.03420       57.37614
H         63.54927      -29.61868       58.48823
H         62.83056      -29.56746       56.84469
N         68.53549      -31.46548       55.39414
C         69.36217      -32.10056       56.41992
C         70.28391      -33.11091       55.75103
O         69.80833      -34.10068       55.21085
C         68.47224      -32.81496       57.47627
C         69.19292      -33.57911       58.55387
O         68.47638      -34.23146       59.48924
O         70.40786      -33.61840       58.60090
H         68.56538      -31.87135       54.44451
H         69.99411      -31.32692       56.90690
H         67.79684      -33.52622       56.95258
H         67.86255      -32.07819       58.00975
N         71.62791      -32.89742       55.74632
C         72.60085      -33.80540       55.16124
C         73.64705      -34.23917       56.17208
O         74.61211      -34.87051       55.76675
H         71.99236      -32.02977       56.17011
H         73.12059      -33.25110       54.35010
H         72.12545      -34.70345       54.71279
N         73.54527      -33.90509       57.49248
C         74.58185      -34.14164       58.48577
C         74.08294      -35.01422       59.62669
O         74.71665      -36.02540       59.89854
C         75.15772      -32.78874       58.97906
C         74.17380      -31.80212       59.56655
O         73.25935      -31.35655       58.89238
O         74.35216      -31.33262       60.81524
H         72.70981      -33.41055       57.81442
H         75.44678      -34.67210       58.02643
H         75.63668      -32.28771       58.11046
H         75.95402      -32.99926       59.72640
N         72.96666      -34.69978       60.34639
C         72.54297      -35.47511       61.50278
C         73.28512      -35.06747       62.76489
O         73.07011      -35.69549       63.79071
H         72.40856      -33.87512       60.09126
H         72.66821      -36.56123       61.29394
H         71.46013      -35.30489       61.68630
N         74.13706      -33.99761       62.77605
C         74.88312      -33.51596       63.93354
C         73.98570      -33.07737       65.09014
O         74.41326      -33.16371       66.23267
C         75.96698      -34.54320       64.35020
C         77.05969      -34.73745       63.27595
C         78.00166      -33.55612       63.13632
N         79.03268      -33.61523       62.26268
O         77.86158      -32.55582       63.82554
H         74.27368      -33.46598       61.91199
H         75.40041      -32.58272       63.62740
H         75.47438      -35.51755       64.54932
H         76.47611      -34.23422       65.28812
H         76.59383      -34.97265       62.29389
H         77.68260      -35.60652       63.57603
H         79.18237      -34.45102       61.67950
H         79.69057      -32.82551       62.17700
N         72.75039      -32.53842       64.86507
C         71.89523      -32.00328       65.93225
C         71.36428      -30.59700       65.62191
O         70.63428      -30.06650       66.44958
C         70.69974      -32.96367       66.19854
C         69.82296      -33.18434       64.95368
C         71.18693      -34.31102       66.74809
H         72.38886      -32.53687       63.90085
H         72.46717      -31.92268       66.88319
H         70.06194      -32.51192       66.99129
H         70.39305      -33.68711       64.14444
H         68.95376      -33.82548       65.21170
H         69.43236      -32.21801       64.57201
H         71.77309      -34.15297       67.67892
H         70.31927      -34.95857       66.99647
H         71.82366      -34.83936       66.01002
N         71.62430      -29.95858       64.44436
C         70.96307      -28.72665       64.01484
C         72.00147      -27.64376       63.72009
O         73.18345      -27.90839       63.90520
C         70.09785      -29.14187       62.80159
C         69.24032      -28.07045       62.19413
N         69.35198      -27.77361       60.87961
O         68.41720      -27.48500       62.88225
H         72.25462      -30.39374       63.75670
H         70.28662      -28.33454       64.80653
H         69.40388      -29.94084       63.14630
H         70.75670      -29.58450       62.02334
H         70.02737      -28.26944       60.27839
H         68.74697      -27.05715       60.45820
N         71.64645      -26.39830       63.26873
C         72.62494      -25.34727       62.99212
C         72.24792      -24.03951       63.69652
O         71.14743      -23.93580       64.22254
C         72.70464      -25.13568       61.45974
C         73.94072      -24.36881       61.06314
C         73.85664      -23.07762       60.52047
C         75.20497      -24.95394       61.25123
C         75.02142      -22.37104       60.20261
C         76.36558      -24.25409       60.91948
C         76.28057      -22.95771       60.40449
O         77.41270      -22.28753       60.11123
H         70.65749      -26.18514       63.08583
H         73.61793      -25.67483       63.36564
H         71.77132      -24.63292       61.11910
H         72.75722      -26.11749       60.93913
H         72.89576      -22.61079       60.36392
H         75.29075      -25.95550       61.65526
H         74.94436      -21.36732       59.80476
H         77.33170      -24.71896       61.07147
H         77.40150      -21.38164       59.77187
N         73.12307      -22.99171       63.73810
C         72.81572      -21.68064       64.30442
C         73.11626      -20.59830       63.26648
O         74.13234      -19.92708       63.38994
C         73.62172      -21.44406       65.59678
C         73.15353      -22.36892       66.72767
C         73.83481      -22.02103       68.01821
O         73.10593      -21.60283       69.07136
O         75.04761      -22.10973       68.12017
H         74.07263      -23.12459       63.36029
H         71.75803      -21.59759       64.61644
H         73.43224      -20.39721       65.92835
H         74.71207      -21.56388       65.41066
H         73.35415      -23.43011       66.47053
H         72.05672      -22.24064       66.86745
N         72.30579      -20.34545       62.19712
C         71.01878      -20.99316       61.95795
C         70.02282      -20.61752       63.04793
O         70.26212      -19.66479       63.77965
C         70.50703      -20.56206       60.56428
C         69.24095      -21.27424       60.08821
C         68.93298      -20.86393       58.68079
O         69.01649      -21.78815       57.71572
O         68.65515      -19.70856       58.40646
H         72.62807      -19.63142       61.52296
H         71.18423      -22.09069       61.95825
H         71.31044      -20.80024       59.83120
H         70.34204      -19.46179       60.55038
H         68.36393      -21.03951       60.72262
H         69.42951      -22.37071       60.11489
N         68.89596      -21.35379       63.24524
C         67.94973      -21.03457       64.29179
H         67.11377      -21.76516       64.28386
H         68.45227      -21.07983       65.28197
H         67.53684      -20.01565       64.13290
H         68.71221      -22.17935       62.65650
Ca        68.74917      -21.60249       55.49522
O         71.58970      -20.67406       53.97837
H         72.36277      -20.05533       53.99243
H         71.98928      -21.56854       53.83683
O         69.80160      -18.21439       54.57575
H         69.32217      -17.36770       54.75746
H         70.75740      -17.95695       54.56049
O         71.50189      -19.79819       57.00424
H         72.31556      -20.02113       57.52207
H         71.55526      -18.81926       56.86710
O         68.37412      -20.69135       52.70658
H         68.90781      -21.02462       51.94232
H         67.98601      -19.83764       52.38967
O         67.16563      -18.20348       56.26572
H         66.68275      -18.87155       56.81400
H         67.34332      -17.45251       56.88645

Ca 1.0



