%chk=apoCaM-CA-Ng.loop2.water5.frame1256.chk
%nprocshared=20
%mem=10GB
%nosave
#b3lyp/svp scf=(tight,noincore,xqc) Test 
#IOP(5/87=12) Density=Current Pop=(MK,readradii) iop(6/33=2) iop(6/42=6)

apoCaM-CA-Ng.loop2.water5.frame1256 

   -2  1 
C         36.74350       57.48092      123.71186
C         37.83416       57.31099      122.68762
O         38.39242       56.22402      122.65112
H         35.96459       56.71094      123.52382
H         37.16527       57.31559      124.72453
H         36.23498       58.45736      123.70353
N         38.20666       58.26174      121.78066
C         37.66861       59.61504      121.63992
C         38.79833       60.64172      121.55851
O         39.95877       60.27686      121.69226
C         36.66905       59.64505      120.46078
C         37.13973       58.91688      119.23539
O         38.24710       59.28731      118.57582
O         36.51974       57.93920      118.84724
H         38.91461       57.97974      121.08297
H         37.09048       59.93284      122.52575
H         36.36320       60.68026      120.20999
H         35.75176       59.11876      120.80987
N         38.50878       61.97130      121.40815
C         39.47433       63.06482      121.52181
C         40.62379       63.04448      120.52460
O         41.48073       63.91049      120.64800
C         40.01807       63.12982      122.95524
H         37.52492       62.24905      121.28166
H         38.93036       64.02284      121.35818
H         39.17417       63.21917      123.67125
H         40.61790       62.23181      123.20494
H         40.66103       64.02867      123.08053
N         40.70874       62.15701      119.49115
C         41.82394       62.18369      118.54688
C         41.43439       62.91366      117.27562
O         40.27840       63.27391      117.09781
C         42.40606       60.77074      118.32170
C         41.37934       59.76971      117.88183
O         40.75059       59.93844      116.85135
O         41.14677       58.67763      118.63573
H         39.93512       61.50049      119.31844
H         42.65501       62.79534      118.96166
H         42.84551       60.41157      119.27758
H         43.22366       60.80876      117.57005
N         42.41072       63.26961      116.39543
C         42.20048       64.14035      115.25078
C         41.45969       63.51838      114.09050
O         41.38047       64.17559      113.06181
H         43.38433       63.00179      116.60730
H         43.20322       64.41254      114.85434
H         41.70465       65.08077      115.57567
N         40.92061       62.26839      114.14080
C         40.34059       61.62620      112.97043
C         38.86061       61.94224      112.86591
O         38.30663       62.57435      113.75614
C         40.56625       60.09158      113.01304
C         42.02310       59.67517      113.03800
N         42.79974       59.84301      114.13607
O         42.49966       59.13356      112.05200
H         40.93052       61.74449      115.02069
H         40.83547       62.01295      112.05124
H         40.11955       59.66135      112.09180
H         40.04081       59.63350      113.87867
H         42.43433       60.24354      115.00574
H         43.78115       59.53033      114.13403
N         38.14552       61.50035      111.79328
C         36.70882       61.66484      111.68663
C         36.27214       63.10128      111.46636
O         37.11886       63.97423      111.33742
H         38.62219       60.96734      111.05042
H         36.25207       61.23788      112.60234
H         36.34998       61.08784      110.80499
N         34.95226       63.43456      111.33962
C         33.84967       62.49149      111.52885
C         33.28259       62.03225      110.20395
O         33.65292       62.55444      109.16111
C         32.74056       63.11657      112.41597
C         33.24564       63.46434      113.81595
O         32.23428       64.28427      111.81658
H         34.72023       64.40767      111.08365
H         34.20415       61.56878      112.02380
H         31.91756       62.37806      112.56375
H         31.45391       64.01935      111.26273
H         33.61733       62.55171      114.32750
H         34.06107       64.21640      113.76926
H         32.41096       63.88828      114.41561
N         32.38047       61.00820      110.19286
C         31.73799       60.48945      108.99317
C         30.23093       60.68924      109.16976
O         29.71739       60.23791      110.18474
C         32.08624       58.98774      108.77469
C         33.62042       58.79878      108.63560
C         31.35954       58.46794      107.51930
C         34.04952       57.34487      108.41301
H         32.12587       60.57162      111.09278
H         32.13086       61.03100      108.11986
H         31.73096       58.40250      109.65260
H         34.11374       59.15214      109.56636
H         34.00140       59.40960      107.78778
H         31.70589       59.00306      106.60988
H         31.50709       57.37891      107.38747
H         30.27266       58.61964      107.61681
H         35.15740       57.28819      108.37443
H         33.68506       56.70015      109.23993
H         33.67202       56.95416      107.44573
N         29.43170       61.36832      108.29243
C         29.83197       61.88005      106.98891
C         28.79746       61.48885      105.94897
O         27.64833       61.88808      106.07816
C         29.98415       63.41100      107.06455
C         30.51585       64.03677      105.79683
O         30.70384       65.36846      105.75047
O         30.79702       63.36020      104.81909
H         28.45233       61.53076      108.57739
H         30.80249       61.46925      106.67275
H         30.70277       63.65241      107.87790
H         29.00525       63.87210      107.31835
N         29.14570       60.72561      104.87343
C         28.22224       60.42755      103.78084
C         28.88223       59.47420      102.79154
O         29.98110       59.78051      102.34817
C         27.84500       61.72568      103.02729
C         26.81419       61.43828      101.96559
C         27.20614       61.12245      100.65356
C         25.44889       61.44462      102.29447
C         26.24447       60.81340       99.68792
C         24.49017       61.14260      101.32382
C         24.88759       60.82444      100.02233
H         30.11050       60.36317      104.82542
H         27.30199       59.97555      104.20578
H         28.75393       62.18055      102.57411
H         27.43305       62.49620      103.71072
H         28.25467       61.10024      100.38358
H         25.12967       61.67932      103.30260
H         26.55185       60.56047       98.68167
H         23.43958       61.14947      101.58289
H         24.14426       60.58360       99.27396
N         28.28119       58.32574      102.34686
C         26.92795       57.87693      102.65712
C         26.87917       57.04542      103.93508
O         25.92973       56.29420      104.10703
C         26.61207       57.00459      101.42977
C         27.93595       56.31480      101.18289
C         28.90489       57.47836      101.34427
H         26.16223       58.68104      102.67427
H         25.73393       56.33247      101.53539
H         26.42155       57.67652      100.55954
H         28.09617       55.59168      102.01452
H         28.02793       55.77085      100.21934
H         29.90660       57.10563      101.64986
H         28.98574       58.06111      100.39996
N         27.85701       57.13457      104.88035
C         27.94273       56.26263      106.04612
C         29.35158       55.65574      106.09959
O         30.19796       56.07559      105.32126
C         27.58312       57.07609      107.30807
C         26.10298       57.48590      107.31476
C         25.74181       58.15948      108.60778
O         25.30983       59.30054      108.60985
O         25.87420       57.49547      109.77314
H         28.59103       57.84689      104.78109
H         27.22374       55.42045      105.95166
H         28.21227       57.98323      107.37685
H         27.75519       56.47782      108.21257
H         25.46583       56.58036      107.21434
H         25.89257       58.16377      106.45896
N         29.70971       54.63005      106.92661
C         28.82485       53.94257      107.84129
H         27.94902       53.53425      107.29595
H         29.36876       53.09648      108.31171
H         28.50408       54.59722      108.66751
H         30.67706       54.27525      106.86090
Ca        38.84726       57.87266      116.91762
O         41.49374       56.45345      116.45696
H         41.52347       55.67657      115.84431
H         42.23543       56.29777      117.09383
O         37.07237       59.39507      115.12767
H         37.68560       58.93394      114.50174
H         37.50634       60.26770      115.30165
O         37.14828       55.35632      117.31338
H         37.26886       54.54029      117.86069
H         36.48950       55.09858      116.62096
O         39.66097       55.78835      119.41487
H         38.77323       55.59673      119.80945
H         39.94701       54.92775      119.01750
O         38.89063       56.19863      114.48419
H         39.22665       55.27618      114.61161
H         38.15758       56.10979      113.82515

Ca 1.0



