%chk=apoCaM-CA-Ng.loop2.water3.frame652.chk
%nprocshared=20
%mem=10GB
%nosave
#b3lyp/svp scf=(tight,noincore,xqc) Test 
#IOP(5/87=12) Density=Current Pop=(MK,readradii) iop(6/33=2) iop(6/42=6)

apoCaM-CA-Ng.loop2.water3.frame652 

   -2  1 
C         76.74838       48.24199       -7.73095
C         75.42635       48.70902       -7.21840
O         74.45773       48.67440       -7.96198
H         77.53297       48.35203       -6.95299
H         76.67571       47.17203       -8.01262
H         77.03196       48.85314       -8.61151
N         75.32858       49.18587       -5.94896
C         74.10399       49.69161       -5.35621
C         73.28369       48.53325       -4.79552
O         73.20015       48.36033       -3.58628
C         74.47789       50.73857       -4.28813
C         73.29037       51.56043       -3.86223
O         72.15646       50.97035       -3.44069
O         73.34300       52.77855       -3.92616
H         76.19276       49.24968       -5.38934
H         73.50983       50.24227       -6.12091
H         75.22859       51.43935       -4.72140
H         74.95178       50.23128       -3.42119
N         72.62107       47.71166       -5.64966
C         71.73488       46.63131       -5.24177
C         72.23889       45.30314       -5.77408
O         73.16175       45.30136       -6.57864
C         70.32336       46.97352       -5.76108
H         72.69775       47.88720       -6.65861
H         71.71299       46.52333       -4.13851
H         69.72290       47.40469       -4.93451
H         70.36022       47.75119       -6.56007
H         69.79696       46.10009       -6.19601
N         71.73435       44.09939       -5.36611
C         70.71827       43.88175       -4.33078
C         71.30234       43.89411       -2.94428
O         72.33893       43.29029       -2.71619
C         69.94983       42.55159       -4.53017
C         70.76458       41.28392       -4.66468
O         72.10495       41.27652       -4.56603
O         70.18835       40.23346       -4.89094
H         72.19281       43.27207       -5.76754
H         69.93098       44.66255       -4.38731
H         69.33414       42.65362       -5.44445
H         69.25165       42.41574       -3.66909
N         70.63387       44.52650       -1.94327
C         71.07860       44.51325       -0.56737
C         71.63148       45.85221       -0.19874
O         71.70132       46.73207       -1.04778
H         69.76175       45.03799       -2.15247
H         71.88682       43.76847       -0.40362
H         70.21786       44.24893        0.08163
N         72.10298       46.10668        1.04443
C         72.07808       45.17278        2.17232
C         73.38644       44.41052        2.26488
O         74.18852       44.51242        1.34838
C         71.83181       45.96977        3.47256
C         72.99197       46.87141        3.86398
N         73.72215       46.61315        4.97220
O         73.27860       47.84211        3.18125
H         72.51688       47.03629        1.17624
H         71.23445       44.45402        2.08124
H         71.64022       45.24958        4.29373
H         70.90507       46.56898        3.36696
H         73.52732       45.79079        5.56045
H         74.50134       47.23578        5.23186
N         73.71178       43.68424        3.37701
C         75.07697       43.26563        3.61932
C         75.30608       41.82435        3.30132
O         75.91161       41.14762        4.12113
H         73.05402       43.61410        4.16553
H         75.35303       43.48257        4.67672
H         75.78008       43.87294        3.00981
N         74.89576       41.28411        2.11511
C         75.29885       39.94580        1.70821
C         75.95900       39.99755        0.34637
O         75.29462       40.20922       -0.65611
C         74.18187       38.88057        1.80274
C         73.72634       38.64383        3.24552
O         73.07451       39.15606        0.99316
H         74.33430       41.85438        1.46378
H         76.07235       39.57929        2.41057
H         74.63439       37.92967        1.44664
H         72.55347       39.88398        1.42582
H         73.16378       39.52174        3.62791
H         73.06342       37.75395        3.26763
H         74.59971       38.45935        3.90538
N         77.30785       39.83730        0.26905
C         78.07741       39.82576       -0.96710
C         77.82608       38.49389       -1.67309
O         77.99070       37.45165       -1.05297
C         79.59492       40.02866       -0.65556
C         80.42349       40.10817       -1.96246
C         79.81927       41.32272        0.16726
C         81.92759       39.97826       -1.73351
H         77.81934       39.72962        1.15471
H         77.76997       40.68692       -1.59972
H         79.93886       39.15827       -0.05613
H         80.22186       41.07289       -2.47290
H         80.14444       39.27950       -2.64414
H         79.31764       41.28520        1.15318
H         80.89037       41.47955        0.38973
H         79.43567       42.21143       -0.38123
H         82.32969       40.79028       -1.09795
H         82.14812       38.99838       -1.25988
H         82.44782       40.02668       -2.71260
N         77.40940       38.46701       -2.96915
C         77.02260       37.28229       -3.70985
C         77.89088       37.03633       -4.94757
O         77.70046       36.00716       -5.58280
C         75.55503       37.47159       -4.15540
C         74.63399       37.81288       -2.99537
O         73.84293       38.91098       -2.94961
O         74.58375       37.04909       -2.05032
H         77.29613       39.34104       -3.45916
H         77.10862       36.38760       -3.05299
H         75.21308       36.51292       -4.60310
H         75.49555       38.25912       -4.94173
N         78.86970       37.90758       -5.34151
C         79.74270       37.68061       -6.48240
C         79.82510       38.92714       -7.37816
O         80.91161       39.47007       -7.49997
C         81.11893       37.21213       -5.92009
C         82.07721       36.72895       -6.98730
C         83.37828       37.25709       -7.09685
C         81.67782       35.71505       -7.87598
C         84.24728       36.78691       -8.09122
C         82.54275       35.25738       -8.86863
C         83.82629       35.79255       -8.97913
H         79.06827       38.73330       -4.77541
H         79.35189       36.85270       -7.10184
H         80.93165       36.34421       -5.24996
H         81.57930       38.01153       -5.29493
H         83.72596       38.02214       -6.41303
H         80.69306       35.27545       -7.80912
H         85.24810       37.19097       -8.17698
H         82.21225       34.48497       -9.55030
H         84.49401       35.43143       -9.75050
N         78.75611       39.42225       -8.09354
C         78.86733       40.54164       -9.03492
C         79.30382       41.88920       -8.43875
O         79.52619       42.81808       -9.20350
C         77.46666       40.67447       -9.65440
C         76.85584       39.29860       -9.46526
C         77.45309       38.79170       -8.14948
H         79.60898       40.22945       -9.80023
H         76.85293       41.37832       -9.05329
H         77.47484       41.01652      -10.71563
H         75.74379       39.27524       -9.51785
H         77.25968       38.65852      -10.27889
H         76.87233       39.07866       -7.24825
H         77.51157       37.68333       -8.22928
N         79.41025       42.08248       -7.09279
C         79.88020       43.33050       -6.48638
C         81.39002       43.43826       -6.59010
O         81.91961       44.53911       -6.65370
C         79.50632       43.46181       -4.98974
C         78.02201       43.19212       -4.70482
C         77.77261       41.79726       -4.28169
O         76.54997       41.46128       -3.87930
O         78.66247       40.96951       -4.26663
H         79.12995       41.31372       -6.48566
H         79.37615       44.19093       -6.98273
H         79.70755       44.51419       -4.70287
H         80.14711       42.84591       -4.31508
H         77.39010       43.41667       -5.59023
H         77.69496       43.80637       -3.84354
N         82.14175       42.30514       -6.49712
C         83.58405       42.25725       -6.47143
H         84.04587       43.26261       -6.53213
H         83.89167       41.77408       -5.51989
H         83.94772       41.63109       -7.31449
H         81.66551       41.40356       -6.40692
Ca        74.51483       41.01100       -3.22932
O         74.66977       43.35297       -4.80720
H         75.15275       44.20677       -4.68029
H         75.05189       42.95885       -5.63134
O         71.97353       40.38173       -1.56309
H         71.19075       39.91408       -1.17988
H         72.59387       40.50916       -0.80667
O         74.90402       43.53063       -1.58977
H         75.27398       43.68222       -0.68644
H         74.78137       44.43810       -1.96629

Ca 1.0



