%chk=apoCaM-CA-Ng.loop1.water1.frame935.chk
%nprocshared=20
%mem=10GB
%nosave
#b3lyp/svp scf=(tight,noincore,xqc) Test 
#IOP(5/87=12) Density=Current Pop=(MK,readradii) iop(6/33=2) iop(6/42=6)

apoCaM-CA-Ng.loop1.water1.frame935 

   0  1 
C        104.54104       90.77104       69.00482
C        104.75974       90.05814       70.31118
O        105.51238       89.09567       70.33981
H        105.51707       91.12998       68.61494
H        104.08221       90.08363       68.26526
H        103.87688       91.65383       69.12683
N        104.13272       90.49071       71.44012
C        104.33613       89.91096       72.76664
C        103.04718       89.29168       73.31781
O        102.01757       89.94672       73.38283
C        104.96216       90.92633       73.75487
C        104.22081       92.22240       73.97208
O        104.54394       92.94535       74.90108
O        103.18597       92.57498       73.18724
H        103.48239       91.27860       71.33728
H        105.09012       89.09642       72.70688
H        105.99761       91.17385       73.43800
H        105.03375       90.39917       74.73391
N        103.06960       87.99302       73.73568
C        101.92912       87.22216       74.23801
C        101.38465       87.75386       75.55973
O        102.15683       87.92368       76.49730
C        102.36209       85.75193       74.44920
C        102.75543       85.07510       73.11790
C        103.20120       83.61614       73.28607
C        104.54426       83.47935       74.02436
N        104.94295       82.07565       74.11796
H        103.97580       87.50614       73.67369
H        101.11807       87.21603       73.47545
H        101.51520       85.17712       74.88617
H        103.20525       85.73219       75.17180
H        103.56704       85.62554       72.59786
H        101.86298       85.08974       72.45541
H        103.32790       83.18428       72.26918
H        102.40808       83.04215       73.81168
H        104.47436       83.89787       75.04993
H        105.32691       84.04424       73.46914
H        104.23610       81.54128       74.67358
H        105.02926       81.65924       73.16233
H        105.86948       82.01321       74.59855
N        100.04131       87.94464       75.72975
C         99.41593       88.37155       76.99249
C         97.88565       88.30031       76.94530
O         97.33461       88.13035       75.86134
C         99.86953       89.81040       77.34391
C         99.72801       90.77405       76.20789
O         98.64951       91.02351       75.69269
O        100.84826       91.36924       75.78283
H         99.43726       87.72477       74.92130
H         99.73056       87.66558       77.79126
H        100.94064       89.78248       77.62934
H         99.33790       90.24768       78.19546
N         97.08529       88.42862       78.04660
C         97.51034       88.52753       79.44404
C         97.98354       87.21491       80.01421
O         98.03495       86.21652       79.31562
H         96.06575       88.43940       77.89185
H         96.61948       88.79939       80.04827
H         98.24114       89.32310       79.62452
N         98.29607       87.15440       81.34341
C         98.56335       85.90023       82.03528
C         97.28064       85.08722       82.04645
O         96.28988       85.55642       82.59103
C         99.02560       86.18610       83.48810
C         99.38225       84.95903       84.29239
O         99.79362       85.10639       85.56635
O         99.31169       83.83811       83.81353
H         98.28851       88.02966       81.88747
H         99.38849       85.36409       81.51570
H         98.22678       86.73818       84.03023
H         99.92810       86.83359       83.45278
N         97.21982       83.85802       81.46282
C         96.01202       83.04976       81.48718
C         94.86198       83.60379       80.66010
O         93.80031       83.00174       80.70953
H         98.06803       83.46073       81.03170
H         95.68856       82.92957       82.54410
H         96.24127       82.03747       81.08809
N         94.99696       84.68882       79.83606
C         93.92451       85.17021       78.96413
C         93.66045       86.65750       79.17820
O         94.43885       87.32943       79.83686
C         94.33933       84.92580       77.48613
C         94.61939       83.44665       77.20570
O         93.32689       85.35493       76.61297
H         95.90722       85.15202       79.75944
H         92.98191       84.62038       79.17456
H         95.27530       85.50777       77.29841
H         93.76654       85.59652       75.75548
H         94.92581       83.32124       76.14536
H         95.44313       83.06729       77.84519
H         93.70530       82.84289       77.38780
N         92.55904       87.23255       78.61066
C         92.29463       88.67056       78.57639
C         91.13610       89.04576       79.49170
O         90.91270       90.23719       79.66663
C         92.06140       89.06854       77.07786
C         93.37743       88.86405       76.28001
C         91.53249       90.50419       76.87704
C         93.17513       88.84851       74.76404
H         91.87634       86.61918       78.14133
H         93.16733       89.23369       78.97704
H         91.28261       88.38015       76.67818
H         93.82731       87.88493       76.53034
H         94.11513       89.64651       76.56376
H         92.24104       91.24999       77.29381
H         91.36346       90.72500       75.80542
H         90.53690       90.63009       77.34803
H         92.77190       89.80597       74.38278
H         94.15102       88.66708       74.26667
H         92.48428       88.02253       74.48789
N         90.39711       88.12164       80.17104
C         89.38897       88.52850       81.14487
C         88.05927       88.79827       80.45827
O         87.88220       88.42733       79.30544
C         89.27783       87.48004       82.28054
C         90.63682       87.27574       82.97083
O         88.34249       87.90545       83.23701
H         90.59174       87.11649       80.05556
H         89.71938       89.48088       81.61902
H         88.94270       86.51555       81.83187
H         88.10809       87.11127       83.78491
H         91.40244       86.90862       82.25546
H         90.99281       88.23113       83.41270
H         90.54291       86.52200       83.78002
N         87.09026       89.49362       81.11703
C         85.77685       89.79996       80.56336
C         85.63522       91.30366       80.35939
O         85.31967       91.71908       79.25337
C         84.68062       89.21011       81.48940
C         83.27516       89.38137       80.90777
O         84.71728       89.79891       82.76531
H         87.30337       89.83878       82.06409
H         85.64949       89.31130       79.57078
H         84.84717       88.10875       81.57255
H         85.30993       89.23956       83.33237
H         83.20655       88.88979       79.91421
H         82.53043       88.90921       81.58396
H         83.01739       90.45422       80.79726
N         85.87471       92.17750       81.37793
C         85.72325       93.62484       81.27399
C         87.06514       94.31627       81.42049
O         87.86598       93.93245       82.26217
C         84.73193       94.11071       82.34965
C         83.29360       93.72210       81.96214
C         82.23884       94.14130       82.99424
C         82.25734       93.25056       84.24547
N         81.19392       93.63607       85.17292
H         86.18456       91.80657       82.28803
H         85.31684       93.92736       80.28345
H         84.76380       95.22141       82.41163
H         85.02917       93.70187       83.33940
H         83.20507       92.63198       81.77499
H         83.06264       94.25208       81.01143
H         81.24037       94.02384       82.51954
H         82.36916       95.21319       83.26156
H         83.23729       93.31742       84.76316
H         82.09695       92.19340       83.93375
H         80.26262       93.58543       84.69850
H         81.19174       92.97747       85.98494
H         81.35894       94.60785       85.52185
N         87.33826       95.40996       80.64852
C         88.58483       96.15990       80.72361
C         89.74274       95.37020       80.11893
O         90.68459       95.11376       80.85499
C         88.42080       97.57102       80.09331
C         89.68627       98.44353       80.16043
C         90.15740       98.67222       81.56851
O         91.27657       98.31991       81.90511
O         89.35170       99.27538       82.46330
H         86.59408       95.76179       80.02675
H         88.80008       96.35015       81.79966
H         87.59876       98.09551       80.62947
H         88.12124       97.51490       79.03086
H         89.46047       99.43142       79.70396
H         90.49355       97.96987       79.56057
N         89.81139       94.95242       78.81690
C         88.79567       95.11955       77.79579
H         87.86808       95.58320       78.15808
H         89.20319       95.73731       76.96747
H         88.51918       94.12365       77.39226
H         90.66795       94.46162       78.51586
Ca       101.21735       92.84749       74.16907
O         97.90709       92.12716       72.53657
H         97.84724       92.81205       73.24926
H         97.11684       91.54830       72.68178

Ca 1.0



