%chk=apoCaM-CA-Ng.loop2.water4.frame663.chk
%nprocshared=20
%mem=10GB
%nosave
#b3lyp/svp scf=(tight,noincore,xqc) Test 
#IOP(5/87=12) Density=Current Pop=(MK,readradii) iop(6/33=2) iop(6/42=6)

apoCaM-CA-Ng.loop2.water4.frame663 

   -2  1 
C         -6.56331       45.55237        1.48922
C         -7.85029       44.84604        1.18426
O         -7.94527       44.19834        0.15134
H         -5.81181       45.36403        0.69271
H         -6.74711       46.64475        1.55742
H         -6.15608       45.18853        2.45615
N         -8.88641       44.91514        2.06561
C        -10.16605       44.25257        1.85743
C        -10.31654       43.15031        2.88587
O        -10.26601       43.42195        4.07741
C        -11.30874       45.28063        1.94612
C        -12.65341       44.64482        1.71689
O        -13.59678       44.69817        2.67644
O        -12.89786       44.08164        0.66148
H         -8.75124       45.44384        2.94205
H        -10.20646       43.80076        0.84166
H        -11.15560       46.06674        1.17482
H        -11.29739       45.76887        2.94506
N        -10.50566       41.86488        2.47577
C        -10.59913       40.73173        3.39300
C         -9.24562       40.46181        4.04747
O         -8.25354       40.98388        3.55597
C        -11.02217       39.49534        2.57706
H        -10.59539       41.68983        1.46240
H        -11.37556       40.95953        4.15430
H        -11.13506       38.57776        3.17535
H        -11.99742       39.69177        2.08391
H        -10.26601       39.28438        1.78930
N         -9.06920       39.62333        5.11402
C        -10.13594       39.00659        5.90680
C        -10.85052       40.03553        6.77425
O        -10.45789       41.19532        6.78233
C         -9.56429       37.84150        6.75881
C         -8.52153       38.21407        7.78321
O         -8.16245       39.36952        7.93730
O         -7.97160       37.24642        8.54092
H         -8.09276       39.43600        5.39148
H        -10.87685       38.53649        5.24305
H         -9.10924       37.10218        6.06430
H        -10.39331       37.32748        7.28823
N        -11.90301       39.66697        7.56296
C        -12.56578       40.59515        8.46567
C        -13.31715       41.69422        7.74090
O        -13.39854       41.65468        6.52111
H        -12.21510       38.68494        7.56702
H        -11.78940       41.04372        9.11859
H        -13.29277       40.04395        9.10109
N        -13.88332       42.74774        8.40255
C        -13.80497       42.96390        9.84890
C        -12.89815       44.14726       10.14402
O        -12.46807       44.81464        9.21298
C        -15.20918       43.14437       10.47499
C        -15.94222       44.38060        9.99575
N        -16.23707       45.38435       10.85541
O        -16.28406       44.47452        8.82691
H        -14.33238       43.47457        7.82643
H        -13.34533       42.08720       10.34510
H        -15.08747       43.20265       11.57787
H        -15.83385       42.24875       10.26679
H        -15.96130       45.33378       11.84674
H        -16.73692       46.22372       10.52579
N        -12.53451       44.44305       11.42613
C        -11.63648       45.54049       11.76323
C        -10.35294       45.08733       12.44196
O         -9.53930       45.94829       12.74549
H        -12.90359       43.86530       12.19671
H        -12.17327       46.23941       12.43978
H        -11.34568       46.11165       10.85637
N        -10.09475       43.77807       12.73374
C         -8.87815       43.34198       13.41873
C         -7.65645       43.52413       12.53568
O         -7.62385       42.96124       11.45475
C         -8.99566       41.85085       13.82612
C         -7.74257       41.35729       14.56669
O        -10.11234       41.69705       14.66361
H        -10.79951       43.06389       12.50182
H         -8.76898       43.92445       14.36142
H         -9.13194       41.24143       12.90237
H        -10.35286       40.73393       14.64872
H         -7.86871       40.29348       14.85646
H         -6.84572       41.42131       13.91658
H         -7.56870       41.96207       15.48209
N         -6.58238       44.24246       12.96699
C         -5.32165       44.30810       12.22602
C         -4.69302       42.91829       12.19050
O         -4.39109       42.39138       13.25388
C         -4.32921       45.31038       12.91070
C         -2.92914       45.29107       12.22852
C         -4.91551       46.73793       12.89880
C         -1.87439       46.12145       12.96523
H         -6.65226       44.71533       13.88043
H         -5.51559       44.67288       11.19248
H         -4.19600       44.98967       13.96879
H         -3.00918       45.63565       11.17512
H         -2.53184       44.25486       12.22044
H         -5.90617       46.77808       13.39332
H         -4.26711       47.44361       13.45478
H         -5.02971       47.10051       11.85484
H         -0.89408       46.00457       12.45840
H         -2.12239       47.20063       12.96619
H         -1.76978       45.76440       14.01255
N         -4.40564       42.29708       11.00684
C         -3.64602       41.05148       10.92615
C         -2.28582       41.25812       10.26362
O         -1.52845       40.29997       10.22599
C         -4.42505       39.92598       10.21352
C         -5.68711       39.56565       10.94422
O         -5.72461       38.56430       11.64182
O         -6.80440       40.29470       10.77937
H         -4.67931       42.75502       10.12901
H         -3.41598       40.68098       11.95000
H         -3.77112       39.02541       10.21695
H         -4.64831       40.16380        9.15263
N         -1.87152       42.47362        9.77975
C         -0.51181       42.71134        9.30416
C         -0.52913       43.28984        7.88369
O          0.01902       44.36203        7.68582
C          0.12020       43.71551       10.30717
C          1.59848       44.01749       10.18996
C          2.10093       45.09394       10.94281
C          2.48932       43.27097        9.39303
C          3.45652       45.42426       10.89863
C          3.84995       43.59675        9.36498
C          4.33219       44.67299       10.11413
H         -2.49997       43.28699        9.81935
H          0.06842       41.76685        9.30956
H         -0.04419       43.35288       11.34555
H         -0.44528       44.67030       10.20461
H          1.43687       45.68641       11.56039
H          2.15407       42.42873        8.80609
H          3.82706       46.26095       11.47701
H          4.53312       43.01155        8.76360
H          5.38442       44.92428       10.08887
N         -1.16726       42.67224        6.83503
C         -1.26859       43.25843        5.49779
C         -1.87811       44.65782        5.44932
O         -1.85576       45.26341        4.38403
C         -2.19375       42.28999        4.75163
C         -1.86623       40.97039        5.41043
C         -1.77539       41.36522        6.88528
H         -0.23871       43.27567        5.07645
H         -3.25196       42.51353        5.02439
H         -2.10231       42.32045        3.64424
H         -2.57339       40.14188        5.19430
H         -0.84995       40.67600        5.06099
H         -2.77355       41.45643        7.36216
H         -1.15067       40.61188        7.41124
N         -2.45255       45.23273        6.54616
C         -2.95072       46.59687        6.58081
C         -1.76462       47.52679        6.41239
O         -1.74783       48.30692        5.47200
C         -3.66243       46.92230        7.92446
C         -5.12239       46.43362        8.08185
C         -5.41334       44.96314        8.19506
O         -6.68106       44.58129        8.42405
O         -4.54868       44.11386        8.11481
H         -2.49645       44.69822        7.41579
H         -3.67999       46.76974        5.75685
H         -3.75609       48.03034        7.97203
H         -3.04345       46.61000        8.79371
H         -5.72601       46.83608        7.24076
H         -5.50447       46.88524        9.02291
N         -0.72584       47.47557        7.29587
C          0.45447       48.30838        7.19912
H          1.34863       47.66021        7.08250
H          0.41116       49.00696        6.33801
H          0.56133       48.90115        8.13134
H         -0.76194       46.80426        8.07635
Ca        -6.97583       41.78253        9.08617
O         -5.54735       41.00850        6.45683
H         -5.68114       41.62571        5.69514
H         -5.13674       41.57359        7.15737
O         -8.00890       43.29974        6.27601
H         -8.22371       42.70875        5.51485
H         -7.21873       43.81024        5.96847
O         -9.57664       43.94868        9.19367
H         -9.09979       44.57076        9.79820
H         -9.94255       44.53258        8.48307
O         -9.70673       40.14649       10.43941
H        -10.52675       40.08043       10.98942
H         -9.28909       39.25226       10.51382

Ca 1.0



