%chk=apoCaM-CA-Ng.loop4.water3.frame971.chk
%nprocshared=20
%mem=10GB
%nosave
#b3lyp/svp scf=(tight,noincore,xqc) Test 
#IOP(5/87=12) Density=Current Pop=(MK,readradii) iop(6/33=2) iop(6/42=6)

apoCaM-CA-Ng.loop4.water3.frame971 

   -3  1 
C         86.35679       16.73137       46.32312
C         87.14641       16.50383       47.57788
O         87.04008       17.28891       48.50858
H         85.73189       17.64535       46.40482
H         87.04801       16.84017       45.46121
H         85.69067       15.85998       46.14411
N         87.95618       15.41321       47.66721
C         88.74403       15.04137       48.83751
C         87.84459       14.80936       50.03484
O         88.13616       15.32331       51.10229
C         89.82168       16.09881       49.17222
C         90.68676       16.44492       48.00989
O         91.37401       15.59900       47.46360
O         90.72251       17.71665       47.58522
H         88.00383       14.77921       46.85411
H         89.25381       14.08076       48.60130
H         90.46652       15.73303       50.00060
H         89.32666       17.03092       49.51489
N         86.73226       14.03135       49.93619
C         85.81839       13.81859       51.05380
C         85.96215       12.36041       51.44956
O         85.58450       11.51694       50.64779
C         84.35643       14.18581       50.63141
C         84.26726       15.66402       50.16620
C         83.35523       13.91622       51.77223
C         82.92338       16.03433       49.52994
H         86.52851       13.56485       49.03851
H         86.09701       14.47392       51.89920
H         84.08502       13.53660       49.76952
H         85.03205       15.84861       49.38760
H         84.47313       16.34267       51.02034
H         83.55232       14.58587       52.63461
H         82.31184       14.08175       51.43777
H         83.41395       12.86116       52.10960
H         82.08327       15.94438       50.24646
H         82.95657       17.08971       49.18460
H         82.72779       15.38590       48.64910
N         86.56756       11.93581       52.60134
C         87.14250       12.79261       53.64609
C         88.18267       12.02151       54.46685
O         88.14736       10.79863       54.49032
C         85.99809       13.34570       54.52164
C         86.43394       14.17491       55.68835
O         86.04363       13.81631       56.92346
O         87.08867       15.19184       55.52864
H         86.67231       10.91418       52.69111
H         87.71788       13.60816       53.15706
H         85.40471       12.48879       54.90819
H         85.32486       13.96923       53.91039
N         89.21925       12.68182       55.07057
C         90.33827       11.98263       55.69472
C         90.60437       12.34511       57.13949
O         91.52580       11.76155       57.69398
H         89.26701       13.71007       55.00563
H         91.25813       12.22098       55.11747
H         90.19825       10.88265       55.65194
N         89.89967       13.29752       57.81671
C         90.28755       13.72029       59.16259
C         89.13087       14.14737       60.06304
O         89.40262       14.42006       61.22406
C         91.39376       14.80193       59.06428
C         91.11854       15.88958       58.04983
O         90.05323       16.69855       58.15516
O         91.87892       16.03886       57.10672
H         89.20221       13.85068       57.30254
H         90.72752       12.85679       59.71131
H         92.32791       14.29333       58.74101
H         91.59487       15.24294       60.06505
N         87.83318       14.23012       59.64606
C         86.74504       14.67138       60.51387
C         86.86873       16.12118       60.97040
O         86.02826       16.55490       61.74337
H         87.58913       13.96140       58.69172
H         86.70498       14.00498       61.40329
H         85.77962       14.57093       59.97077
N         87.88989       16.92298       60.54545
C         88.14277       18.29609       60.96433
C         87.08207       19.26975       60.46536
O         86.99515       20.37073       60.98990
C         88.39867       18.38954       62.48810
C         89.44376       17.35528       62.95648
C         89.83413       17.49483       64.40648
N         90.68491       16.59859       64.95874
O         89.39193       18.40741       65.08909
H         88.56883       16.54421       59.89104
H         89.09132       18.62369       60.48189
H         87.45920       18.22867       63.05803
H         88.77101       19.41438       62.70843
H         90.36536       17.43783       62.34013
H         89.01559       16.34106       62.82492
H         91.05856       15.81575       64.40133
H         90.96383       16.67939       65.94770
N         86.27147       18.94444       59.41624
C         85.22090       19.81392       58.89049
C         85.39380       20.09212       57.39589
O         84.48110       20.66307       56.81126
C         83.83103       19.16999       59.17906
C         83.65115       17.78236       58.53502
C         83.58367       19.08328       60.69245
H         86.38252       18.02370       58.96912
H         85.22028       20.80343       59.39774
H         83.04596       19.84064       58.76449
H         84.36580       17.04180       58.95076
H         82.62526       17.40540       58.73301
H         83.78840       17.83840       57.43507
H         84.32280       18.41749       61.18121
H         83.66147       20.09260       61.15049
H         82.56581       18.68953       60.89605
N         86.51624       19.73592       56.70182
C         86.59545       19.82288       55.24096
C         88.04613       19.77335       54.72798
O         88.96775       19.60710       55.51644
C         85.62589       18.73134       54.68586
C         85.90239       18.22329       53.30825
N         86.98808       17.45113       53.09277
O         85.13623       18.47073       52.39034
H         87.31005       19.32665       57.21483
H         86.25736       20.82811       54.90207
H         84.59052       19.13228       54.74339
H         85.65793       17.82786       55.33356
H         87.62730       17.20183       53.86429
H         87.18410       17.10850       52.15104
N         88.31337       19.96930       53.39582
C         89.65620       20.00012       52.81820
C         89.81590       21.23492       51.93648
O         88.90063       21.54761       51.18540
C         89.90993       18.74580       51.96166
C         91.39164       18.59264       51.69528
C         92.25656       18.27561       52.75877
C         91.92744       18.76562       50.41368
C         93.62883       18.13990       52.54234
C         93.30376       18.64121       50.19751
C         94.15890       18.32714       51.25922
O         95.48323       18.20776       51.03677
H         87.52225       20.09647       52.74700
H         90.41024       20.00261       53.63393
H         89.31108       18.82032       51.02730
H         89.59078       17.82751       52.49574
H         91.86512       18.12721       53.75781
H         91.28293       19.01047       49.58910
H         94.27708       17.89197       53.37341
H         93.70658       18.79109       49.20538
H         96.10548       17.99162       51.74628
N         90.96600       21.96166       51.94718
C         91.14894       23.20140       51.19827
C         92.31423       23.05070       50.21196
O         93.39692       23.52197       50.52687
C         91.31531       24.31969       52.26558
C         91.35323       25.77136       51.75236
C         92.69158       26.18278       51.21580
O         93.77266       26.15340       52.02058
O         92.80259       26.58490       50.06949
H         91.74106       21.64939       52.55307
H         90.23692       23.47975       50.63860
H         92.18080       24.12377       52.93672
H         90.39867       24.25479       52.89429
H         91.15353       26.44427       52.61461
H         90.54421       25.92890       51.00610
N         92.22780       22.39504       49.00371
C         91.02160       21.79415       48.41691
C         89.94020       22.82465       48.13122
O         90.19134       24.01883       48.22554
C         91.34439       21.01735       47.08510
C         91.88073       21.94162       45.96468
C         92.17509       21.34682       44.60119
O         91.89548       20.08327       44.21334
O         92.68887       22.08253       43.77417
H         93.10677       22.31640       48.47138
H         90.61795       21.07570       49.15345
H         90.42138       20.51848       46.72284
H         92.09242       20.22481       47.29698
H         92.83328       22.38569       46.31315
H         91.15928       22.76660       45.79089
N         88.69751       22.40675       47.75683
C         87.60648       23.30597       47.44379
H         86.76330       23.11490       48.13999
H         87.89862       24.37340       47.52724
H         87.26371       23.11600       46.40499
H         88.50396       21.39581       47.69568
Ca        90.70812       18.37022       45.04741
O         91.95251       14.79723       44.47196
H         92.12496       14.24913       43.66569
H         91.80134       14.13547       45.19256
O         93.80488       17.11750       43.57912
H         94.56399       16.48232       43.60944
H         94.17826       17.93230       43.15855
O         93.52190       18.05164       46.48634
H         93.89586       17.21448       46.85950
H         94.16306       18.75545       46.75761

Ca 1.0



