%chk=apoCaM-CA-Ng.loop3.water5.frame1029.chk
%nprocshared=20
%mem=10GB
%nosave
#b3lyp/svp scf=(tight,noincore,xqc) Test 
#IOP(5/87=12) Density=Current Pop=(MK,readradii) iop(6/33=2) iop(6/42=6)

apoCaM-CA-Ng.loop3.water5.frame1029 

   0  1 
C         34.26205       51.35573       32.96543
C         33.73046       51.41976       31.56512
O         32.62723       51.90874       31.36503
H         35.21337       51.92526       33.02727
H         33.53722       51.79547       33.68363
H         34.44958       50.29847       33.24600
N         34.48280       50.95159       30.53093
C         34.03959       51.01338       29.14503
C         32.75459       50.23416       28.91362
O         31.82647       50.82102       28.37842
C         35.16100       50.64753       28.14200
C         35.82513       49.29727       28.23237
O         35.53109       48.41262       29.19917
O         36.69082       49.01511       27.41966
H         35.41773       50.57003       30.74110
H         33.81690       52.07929       28.90308
H         35.96901       51.40252       28.25501
H         34.73762       50.75651       27.12133
N         32.58498       48.94777       29.33445
C         31.33697       48.22772       29.10828
C         31.23761       47.82647       27.64687
O         31.98167       46.96052       27.20733
C         31.21762       47.00257       30.03967
C         31.15850       47.45141       31.51131
C         31.11047       46.26686       32.47930
C         31.06491       46.77070       33.93007
N         31.08131       45.65799       34.87739
H         33.32393       48.49885       29.88739
H         30.49089       48.89890       29.37128
H         32.08466       46.32462       29.87741
H         30.28411       46.44404       29.80477
H         30.25646       48.08630       31.65940
H         32.05657       48.05703       31.75655
H         32.02195       45.64640       32.33566
H         30.21375       45.64259       32.27237
H         30.14294       47.37504       34.08513
H         31.94593       47.42282       34.12499
H         31.05072       46.03948       35.85065
H         30.24981       45.04245       34.72623
H         31.96042       45.10324       34.76102
N         30.36293       48.47225       26.82602
C         30.18513       48.16556       25.40646
C         30.87979       49.15530       24.48652
O         30.79677       48.95775       23.28154
C         28.68325       48.06400       25.05983
C         27.89174       49.33154       25.29704
O         28.47207       50.45449       25.77295
O         26.68902       49.32526       25.09251
H         29.83232       49.25123       27.23361
H         30.64768       47.17968       25.17602
H         28.23651       47.25428       25.67514
H         28.57216       47.77493       23.99085
N         31.63470       50.19091       24.95467
C         32.40586       51.05159       24.07159
C         33.86798       50.72413       24.26975
O         34.18144       49.54293       24.21484
H         31.74056       50.33419       25.96654
H         32.12607       52.10077       24.26520
H         32.17084       50.84990       23.00717
N         34.84937       51.63536       24.52124
C         34.73068       53.08565       24.48254
C         34.94226       53.62734       25.88606
O         36.01903       53.41353       26.42497
C         35.82544       53.60704       23.51328
C         35.93623       55.10566       23.37024
N         36.92274       55.62695       22.60282
O         35.16137       55.85291       23.94761
H         35.79036       51.25750       24.72079
H         33.75467       53.40371       24.08377
H         35.65205       53.17292       22.50375
H         36.81400       53.24187       23.87135
H         37.59326       55.01057       22.11867
H         37.02919       56.64703       22.50214
N         34.00099       54.34284       26.57143
C         32.66146       54.65648       26.07526
C         31.87484       55.54135       27.03005
O         32.39221       55.90716       28.07790
H         34.28087       54.67487       27.50647
H         32.09603       53.71768       25.90988
H         32.74809       55.21001       25.11496
N         30.62507       55.98654       26.69428
C         29.92535       57.00238       27.48170
C         28.48830       56.60375       27.83767
O         28.04934       55.52347       27.46801
C         30.01000       58.32042       26.66734
C         30.00167       59.57455       27.50747
C         29.04640       60.58353       27.30973
C         31.00569       59.76116       28.47641
C         29.09651       61.75720       28.07276
C         31.05156       60.92852       29.23651
C         30.09841       61.93400       29.03560
O         30.14240       63.07355       29.75459
H         30.22414       55.70423       25.78656
H         30.46122       57.14972       28.44014
H         29.24159       58.32104       25.86263
H         31.00144       58.35583       26.16249
H         28.27313       60.46855       26.56111
H         31.76561       59.00650       28.63779
H         28.36172       62.53484       27.90969
H         31.83525       61.05195       29.97385
H         30.82948       63.23465       30.41778
N         27.69197       57.46700       28.53555
C         26.28362       57.24124       28.88392
C         25.39917       58.10245       27.99506
O         25.91358       58.80403       27.13238
C         26.00375       57.54066       30.40089
C         26.53523       56.41207       31.30816
C         26.50812       58.93585       30.82717
C         26.13293       56.58431       32.77763
H         28.08707       58.38550       28.76657
H         25.97586       56.19541       28.65928
H         24.90775       57.53349       30.56165
H         27.63859       56.32313       31.22674
H         26.07183       55.46070       30.96662
H         26.16185       59.19041       31.84853
H         27.61681       58.98115       30.82803
H         26.10982       59.71769       30.14716
H         26.61826       57.47392       33.22677
H         25.02885       56.68461       32.86916
H         26.45078       55.69414       33.35884
N         24.04020       58.09097       28.14039
C         23.16872       58.86707       27.27130
C         23.08176       58.21601       25.90704
O         23.53014       57.08896       25.74574
C         21.75476       58.98616       27.87608
O         21.16616       57.72096       28.00409
H         23.60936       57.52334       28.88435
H         23.58023       59.89747       27.18817
H         21.11782       59.62332       27.22323
H         21.83534       59.46616       28.87737
H         20.29495       57.86425       28.45778
N         22.46083       58.86743       24.88645
C         22.16394       58.27330       23.59176
C         21.16069       57.14980       23.77889
O         21.38348       56.03752       23.31992
C         23.44158       57.84968       22.84349
H         22.12645       59.82953       25.04927
H         21.66092       59.04882       22.97309
H         23.98816       57.04230       23.37220
H         23.18306       57.47321       21.83133
H         24.12131       58.72043       22.73207
N         20.01329       57.40019       24.48144
C         18.93247       56.44569       24.70833
C         19.32838       55.21312       25.52008
O         18.47069       54.35943       25.70277
C         18.29946       56.05139       23.36617
H         19.87657       58.34812       24.86527
H         18.13646       56.96197       25.29059
H         17.40530       55.41403       23.53345
H         17.96939       56.96617       22.82806
H         19.01062       55.49505       22.72306
N         20.57747       55.03335       26.04570
C         20.95656       53.81725       26.75688
C         20.13307       53.63170       28.01692
O         19.42673       52.63715       28.11523
C         22.47436       53.80566       27.05376
C         22.89232       52.50697       27.76446
C         24.37473       52.27928       27.79101
O         25.22922       53.10573       27.15875
O         24.80488       51.25457       28.29600
H         21.29408       55.75694       25.91584
H         20.76581       52.95495       26.07697
H         22.78272       54.68109       27.66790
H         22.99280       53.87079       26.07121
H         22.46149       51.64167       27.21531
H         22.49361       52.50462       28.80156
N         20.18298       54.53613       29.03003
C         19.42471       54.35761       30.24897
H         18.33920       54.30577       30.01847
H         19.73951       53.41920       30.75447
H         19.60494       55.20991       30.93702
H         20.78046       55.36905       28.93975
Ca        27.15561       52.08461       26.60484
O         28.83179       53.70680       24.71103
H         28.38026       54.53593       24.41235
H         28.53613       53.01552       24.06730
O         25.30352       52.65668       24.23364
H         25.45213       51.71275       24.49255
H         26.04180       52.86021       23.60677
O         28.30979       50.58447       29.08329
H         28.99256       50.82375       29.75937
H         27.96356       49.70539       29.37827
O         27.70396       53.32918       30.01615
H         28.63357       53.35296       30.35546
H         27.56083       54.22985       29.63569
O         29.85448       53.19495       27.81214
H         30.63452       53.31968       28.40903
H         30.06542       52.38453       27.28528

Ca 1.0



