%chk=apoCaM-CA-Ng.loop2.water4.frame1334.chk
%nprocshared=20
%mem=10GB
%nosave
#b3lyp/svp scf=(tight,noincore,xqc) Test 
#IOP(5/87=12) Density=Current Pop=(MK,readradii) iop(6/33=2) iop(6/42=6)

apoCaM-CA-Ng.loop2.water4.frame1334 

   -2  1 
C         67.11442       67.34102       30.85570
C         65.67238       67.36667       30.41470
O         65.25461       68.43090       29.98115
H         67.76263       67.59222       29.99087
H         67.25167       68.11851       31.63677
H         67.47890       66.39734       31.28772
N         64.80470       66.31151       30.48262
C         65.10642       64.94488       30.92456
C         64.41663       64.58259       32.23995
O         64.84944       63.61666       32.85393
C         64.75277       63.91305       29.81416
C         63.28594       63.91280       29.44587
O         62.76786       63.08587       28.52599
O         62.51679       64.68172       29.98707
H         63.84547       66.52544       30.18055
H         66.18351       64.83313       31.11907
H         65.02890       62.89360       30.16418
H         65.34627       64.13669       28.90277
N         63.33664       65.26845       32.72669
C         62.72172       64.97185       34.01893
C         61.34753       64.31350       33.90536
O         60.78391       64.00461       34.94650
C         62.61129       66.28206       34.81190
H         62.92546       66.03344       32.17318
H         63.35946       64.26855       34.59710
H         62.18971       66.10301       35.82341
H         63.61159       66.75140       34.92532
H         61.94772       66.99746       34.27613
N         60.73465       64.07944       32.70563
C         59.38491       63.52789       32.57844
C         59.32603       62.30788       31.66079
O         60.32594       61.92698       31.06822
C         58.45163       64.65096       32.07230
C         58.84312       65.14225       30.69984
O         59.29404       66.26721       30.55545
O         58.71346       64.33016       29.63113
H         61.20220       64.37025       31.84664
H         59.01198       63.20587       33.57516
H         58.52148       65.48792       32.80236
H         57.39414       64.31447       32.05108
N         58.14427       61.64019       31.52233
C         57.93486       60.47836       30.67039
C         57.76342       60.81732       29.19986
O         57.90264       61.96114       28.80108
H         57.34706       61.93978       32.10308
H         56.97377       60.01159       30.97585
H         58.73721       59.72488       30.82802
N         57.40492       59.82666       28.33575
C         57.17056       60.00907       26.89748
C         55.99432       60.93681       26.60689
O         55.34721       61.41242       27.53032
C         56.88593       58.62921       26.25670
C         58.05696       57.69632       26.42629
N         57.93794       56.56292       27.15575
O         59.12619       57.97065       25.90231
H         57.29898       58.88066       28.73414
H         58.07937       60.44436       26.42999
H         56.68563       58.71393       25.16881
H         55.97493       58.20114       26.73221
H         57.04777       56.31944       27.61432
H         58.74371       55.93169       27.27377
N         55.64114       61.20872       25.31347
C         54.48911       62.02300       24.96065
C         54.68914       63.48116       25.30426
O         55.76844       63.84296       25.74930
H         56.17789       60.78786       24.54078
H         53.59607       61.60893       25.47382
H         54.32398       61.96873       23.86156
N         53.71687       64.41767       25.11636
C         52.35656       64.14958       24.65135
C         52.08138       64.84253       23.33099
O         51.54980       64.19608       22.44080
C         51.31758       64.56928       25.71872
C         51.47152       63.75531       27.01368
O         51.35703       65.95168       25.97835
H         53.96002       65.39043       25.35601
H         52.18779       63.06537       24.48179
H         50.30513       64.33552       25.32012
H         52.14169       66.13887       26.55548
H         51.37460       62.66964       26.79684
H         52.46250       63.93582       27.48152
H         50.67819       64.04106       27.73577
N         52.44374       66.13959       23.11692
C         52.21436       66.84996       21.86371
C         53.54028       66.90379       21.12178
O         54.50979       67.31904       21.74369
C         51.68910       68.29045       22.15038
C         50.55770       68.34118       23.21030
C         51.25571       68.98384       20.84486
C         49.32979       67.48610       22.90112
H         52.96522       66.64008       23.85068
H         51.44212       66.33582       21.26417
H         52.52001       68.89123       22.58484
H         50.23927       69.39820       23.34522
H         50.96545       68.00484       24.18707
H         52.10222       69.03950       20.12864
H         50.42249       68.43379       20.35893
H         50.92176       70.02251       21.05062
H         48.59691       67.60064       23.72793
H         48.84580       67.80312       21.95668
H         49.60468       66.41341       22.83850
N         53.72406       66.54886       19.81440
C         52.67797       66.18480       18.84814
C         53.17585       66.38044       17.41621
O         54.35462       66.64281       17.22054
C         52.16421       64.73673       19.03623
C         53.23879       63.70363       18.83391
O         54.31364       63.67312       19.64446
O         53.13018       62.87297       17.94580
H         54.68813       66.67708       19.47228
H         51.83887       66.90054       18.96556
H         51.33904       64.55117       18.31400
H         51.73841       64.58855       20.03852
N         52.31813       66.29150       16.35511
C         52.76508       66.50434       14.97874
C         52.07623       67.71913       14.36653
O         51.00236       68.06791       14.83837
C         52.57732       65.21264       14.15703
C         51.13320       64.82490       13.94126
C         50.35360       65.49265       12.97918
C         50.55938       63.77546       14.67893
C         49.02505       65.11708       12.76174
C         49.22604       63.41097       14.46630
C         48.46048       64.07914       13.50686
H         51.32295       66.08386       16.52745
H         53.84427       66.68817       14.99470
H         53.10343       64.40736       14.71627
H         53.07586       65.27998       13.16736
H         50.77767       66.29221       12.38476
H         51.13941       63.24694       15.42516
H         48.43441       65.62878       12.01262
H         48.78682       62.60791       15.04359
H         47.43099       63.79071       13.33839
N         52.59647       68.42201       13.30681
C         53.89439       68.22054       12.66823
C         55.03891       68.33483       13.65604
O         55.87691       67.44564       13.70508
C         53.97373       69.35203       11.63276
C         52.51736       69.54895       11.27908
C         51.86856       69.49167       12.65618
H         53.89433       67.23665       12.15068
H         54.29983       70.30095       12.11649
H         54.65518       69.14253       10.78068
H         52.28944       70.46669       10.69754
H         52.18136       68.65904       10.69750
H         52.02744       70.43355       13.22851
H         50.78338       69.28111       12.54194
N         55.06805       69.36722       14.54834
C         56.03876       69.44364       15.63227
C         57.42071       69.74285       15.06427
O         57.57496       70.82216       14.50961
C         55.63543       70.53475       16.65567
C         54.28615       70.22163       17.33472
C         53.89822       71.30266       18.30145
O         52.85826       71.92259       18.14333
O         54.68624       71.58430       19.35638
H         54.32106       70.07550       14.49731
H         55.99944       68.49596       16.19022
H         55.57534       71.52204       16.14595
H         56.41672       70.59473       17.44622
H         54.35765       69.26193       17.88867
H         53.48346       70.12150       16.57387
N         58.49218       68.89396       15.12736
C         58.51786       67.55176       15.67964
H         59.26345       67.50493       16.49980
H         57.55630       67.18956       16.07138
H         58.82650       66.84396       14.88154
H         59.38289       69.22274       14.72277
Ca        60.53098       63.42309       28.62325
O         61.15738       66.32066       27.51363
H         60.51777       67.03490       27.76055
H         61.13640       66.30050       26.52396
O         61.84308       63.46883       25.76356
H         62.69760       63.03577       25.51332
H         61.68025       64.13444       25.04960
O         60.69941       60.87598       27.15984
H         60.51332       60.91044       26.18801
H         60.60923       59.92021       27.40000
O         58.74474       64.53224       26.38155
H         58.12244       63.96962       26.90668
H         58.38168       65.44932       26.46711

Ca 1.0



