%chk=apoCaM-CA-Ng.loop2.water4.frame1059.chk
%nprocshared=20
%mem=10GB
%nosave
#b3lyp/svp scf=(tight,noincore,xqc) Test 
#IOP(5/87=12) Density=Current Pop=(MK,readradii) iop(6/33=2) iop(6/42=6)

apoCaM-CA-Ng.loop2.water4.frame1059 

   -2  1 
C         -2.89209       67.70766       63.36048
C         -2.67704       69.20297       63.43502
O         -2.29943       69.75159       62.41043
H         -3.64338       67.49707       62.56991
H         -1.93890       67.21468       63.07745
H         -3.25874       67.21565       64.27400
N         -2.89386       69.97733       64.54330
C         -3.32480       69.51641       65.85963
C         -2.28914       69.92334       66.90634
O         -1.11305       69.71791       66.64171
C         -4.77610       69.99691       66.09946
C         -4.94782       71.49281       65.97254
O         -5.65873       71.95113       65.09241
O         -4.33141       72.33444       66.82091
H         -2.74792       70.99338       64.43941
H         -3.35039       68.41844       65.91374
H         -5.15457       69.64832       67.08225
H         -5.41184       69.51272       65.32509
N         -2.63221       70.45769       68.12167
C         -1.68355       70.84844       69.16249
C         -0.82407       72.04828       68.78769
O          0.01916       72.40917       69.59811
C         -0.81789       69.65388       69.60224
H         -3.62348       70.56868       68.36673
H         -2.26632       71.15745       70.05923
H         -0.18894       69.93842       70.47315
H         -1.46761       68.80857       69.91199
H         -0.13513       69.30948       68.80046
N         -0.98654       72.74160       67.61834
C         -0.14137       73.86746       67.24555
C         -0.87123       75.24170       67.35865
O         -2.22206       75.36976       66.98609
C          0.74313       73.52071       65.99772
C          0.26728       72.98337       64.64685
O          1.12177       72.55151       63.88973
O         -1.00680       72.94612       64.21816
H         -1.72085       72.46575       66.95788
H          0.63739       74.01727       68.02533
H          1.38074       72.68936       66.37396
H          1.42663       74.37347       65.79867
N         -0.00229       76.37459       67.00540
C         -0.67255       77.66233       66.76888
C         -0.68608       78.01080       65.29808
O         -1.13826       79.09994       64.97443
H          0.67899       76.48391       67.79200
H         -0.09490       78.46574       67.27828
H         -1.70000       77.69669       67.19288
N         -0.20997       77.15032       64.34746
C         -0.18618       77.45868       62.92361
C         -1.19018       76.58769       62.20082
O         -1.52038       75.50800       62.67252
C          1.23073       77.26235       62.34729
C          2.26390       78.20661       62.92331
N          3.55193       78.11449       62.52170
O          1.94996       79.05860       63.74205
H          0.13255       76.21940       64.62394
H         -0.49070       78.51449       62.74777
H          1.20533       77.42533       61.24763
H          1.55522       76.21538       62.53679
H          3.83496       77.39986       61.83739
H          4.26829       78.75375       62.89737
N         -1.81727       77.07485       61.09764
C         -2.93047       76.38497       60.46796
C         -3.56078       77.28764       59.41917
O         -3.87357       78.41473       59.77640
H         -1.53012       78.00054       60.74221
H         -3.70399       76.19798       61.24044
H         -2.57344       75.40741       60.09686
N         -3.77706       76.94501       58.11526
C         -3.59200       75.62730       57.52849
C         -2.36272       75.66673       56.64568
O         -2.29931       76.45851       55.71512
C         -4.87624       75.21924       56.77513
C         -4.77936       73.80625       56.19277
O         -5.95774       75.26622       57.67252
H         -4.12323       77.68635       57.48490
H         -3.44862       74.86294       58.31196
H         -5.03821       75.94716       55.94423
H         -6.76540       75.50751       57.14808
H         -3.94407       73.73537       55.46564
H         -4.61968       73.06448       57.00475
H         -5.72464       73.55536       55.66607
N         -1.31172       74.85686       56.94330
C         -0.02536       74.90080       56.25769
C         -0.19731       74.46003       54.80316
O         -0.73600       73.37954       54.60720
C          1.00671       73.99936       57.00955
C          1.24103       74.56492       58.44400
C          2.34401       73.92377       56.24143
C          2.08877       73.66499       59.33999
H         -1.42598       74.20169       57.73063
H          0.36083       75.92451       56.35163
H          0.58880       72.96963       57.07669
H          0.27703       74.69260       58.97612
H          1.71469       75.56944       58.37813
H          3.06376       73.25248       56.74929
H          2.19451       73.49736       55.22818
H          2.79768       74.93297       56.14157
H          2.16614       74.12854       60.34669
H          1.60329       72.67153       59.44522
H          3.11622       73.54056       58.94680
N          0.25961       75.16130       53.71590
C          1.00120       76.42436       53.73142
C          2.44707       76.19408       53.32089
O          2.80985       75.07298       52.98960
C          0.28319       77.47625       52.85550
C          0.14776       77.07348       51.41085
O          1.13885       76.88578       50.72341
O         -1.07540       76.94186       50.86242
H          0.11862       74.72481       52.79026
H          1.06353       76.85847       54.73569
H          0.82498       78.44480       52.90091
H         -0.73191       77.64311       53.27761
N          3.34596       77.21931       53.37878
C          4.76231       77.06647       53.05768
C          5.49472       78.38637       53.28518
O          5.14072       79.34568       52.60982
C          4.95274       76.68287       51.56359
C          6.41746       76.53209       51.22014
C          7.05358       77.46869       50.38591
C          7.16307       75.46381       51.74592
C          8.41491       77.34273       50.09376
C          8.52192       75.33568       51.44212
C          9.14822       76.27639       50.62008
H          3.01006       78.14001       53.70141
H          5.18610       76.26623       53.69897
H          4.49551       77.48553       50.94242
H          4.43471       75.74056       51.29401
H          6.50210       78.30556       49.97560
H          6.69084       74.72992       52.38684
H          8.90204       78.07380       49.46127
H          9.09044       74.50850       51.84659
H         10.20168       76.17970       50.39136
N          6.56299       78.53148       54.13325
C          7.14353       77.51796       55.01295
C          6.23775       77.08059       56.15808
O          5.08126       77.47362       56.20469
C          8.39491       78.21161       55.57444
C          8.77807       79.13825       54.44645
C          7.41327       79.70362       54.08054
H          7.45493       76.64667       54.39622
H          8.11097       78.87621       56.41553
H          9.19145       77.52123       55.92501
H          9.53761       79.90435       54.70864
H          9.15656       78.51977       53.59944
H          7.06768       80.43418       54.84526
H          7.46216       80.17913       53.07636
N          6.72897       76.25290       57.12822
C          5.93716       75.71893       58.23687
C          6.73043       74.63233       58.97552
O          6.94133       74.74769       60.17390
C          5.40392       76.83323       59.19482
C          6.44650       77.69909       59.94234
C          7.23211       78.59865       59.04169
O          8.57487       78.50197       58.99531
O          6.66146       79.45169       58.38054
H          7.71023       75.94623       57.04171
H          5.04330       75.20851       57.81570
H          4.78759       76.32058       59.96430
H          4.71534       77.51113       58.65004
H          7.14190       77.07418       60.53435
H          5.90852       78.35130       60.66343
N          7.21060       73.51675       58.35103
C          7.01732       73.18068       56.95408
H          6.38592       73.90407       56.40681
H          8.00589       73.12197       56.45243
H          6.52063       72.19127       56.88591
H          7.75446       72.84275       58.91255
Ca        -2.54139       74.11632       65.21327
O         -4.05965       77.18552       63.94544
H         -4.89903       77.38956       63.46168
H         -3.41307       77.85366       63.60598
O         -5.86586       74.78597       62.84724
H         -6.81394       74.50345       62.87744
H         -5.76104       75.19847       61.95357
O         -5.57717       75.07712       66.43755
H         -6.05524       75.92042       66.63705
H         -5.89360       74.44610       67.13175
O         -3.62147       72.78367       62.24432
H         -2.86558       72.46639       61.68922
H         -4.36339       72.16265       62.03326

Ca 1.0



