%chk=apoCaM-CA-Ng.loop4.water4.frame734.chk
%nprocshared=20
%mem=10GB
%nosave
#b3lyp/svp scf=(tight,noincore,xqc) Test 
#IOP(5/87=12) Density=Current Pop=(MK,readradii) iop(6/33=2) iop(6/42=6)

apoCaM-CA-Ng.loop4.water4.frame734 

   -3  1 
C        112.58749       17.75683       -9.33613
C        114.08878       17.77356       -9.37214
O        114.68863       16.83190       -9.86975
H        112.18726       16.82541       -9.78973
H        112.22795       17.83130       -8.29102
H        112.19550       18.62675       -9.90496
N        114.76014       18.85316       -8.88161
C        116.20864       19.02874       -8.92512
C        116.71238       18.98257      -10.35150
O        117.64284       18.24103      -10.64576
C        116.95270       18.01898       -8.02238
C        116.58383       18.18002       -6.58277
O        116.77493       19.24079       -6.00971
O        116.07226       17.14100       -5.90612
H        114.20636       19.63027       -8.48877
H        116.43882       20.04976       -8.54694
H        118.04842       18.19076       -8.10015
H        116.74580       16.97728       -8.35093
N        116.13040       19.75871      -11.30833
C        116.63392       19.76919      -12.67579
C        117.99283       20.47448      -12.70548
O        118.22013       21.32257      -11.85320
C        115.62473       20.38086      -13.69337
C        115.37568       21.89041      -13.45787
C        114.31512       19.56657      -13.67865
C        114.49256       22.52451      -14.53369
H        115.30868       20.32482      -11.05347
H        116.75424       18.70061      -12.96077
H        116.06746       20.27116      -14.70705
H        116.34944       22.42289      -13.48914
H        114.91403       22.06534      -12.46423
H        113.62643       19.88446      -14.48560
H        114.53626       18.49870      -13.85874
H        113.78969       19.65508      -12.70498
H        114.94103       22.37079      -15.53863
H        113.46818       22.10126      -14.51853
H        114.40797       23.61440      -14.34459
N        118.99227       20.15548      -13.57694
C        118.89968       19.11951      -14.59230
C        119.50988       17.82120      -14.10859
O        119.29014       16.82705      -14.77509
C        119.46254       19.60894      -15.94089
C        120.89535       20.06318      -15.85400
O        121.18635       21.21721      -16.12709
O        121.86321       19.20630      -15.47741
H        119.90329       20.62290      -13.44573
H        117.84129       18.86791      -14.78592
H        118.83534       20.45911      -16.28983
H        119.38420       18.79797      -16.69708
N        120.21478       17.71849      -12.94176
C        120.62070       16.44149      -12.37897
C        121.50487       15.63533      -13.30317
O        122.60248       16.06494      -13.62585
H        120.42326       18.55893      -12.38504
H        119.69759       15.86822      -12.14220
H        121.15614       16.60537      -11.41915
N        121.06302       14.42792      -13.75142
C        121.81395       13.51977      -14.61069
C        121.13337       13.33239      -15.96619
O        121.62866       12.54607      -16.76217
C        122.03544       12.17887      -13.86480
C        120.79993       11.61993      -13.20776
O        120.77769       11.42979      -11.87475
O        119.80910       11.35818      -13.86051
H        120.11920       14.12430      -13.46544
H        122.82355       13.92348      -14.84473
H        122.77514       12.35499      -13.05518
H        122.47320       11.42670      -14.55688
N        120.04567       14.07034      -16.33589
C        119.42426       13.98423      -17.64416
C        118.62365       12.71938      -17.84258
O        118.10272       12.54952      -18.93492
H        119.66527       14.76854      -15.69791
H        120.20683       14.08821      -18.42812
H        118.71480       14.83257      -17.76759
N        118.43747       11.80915      -16.83623
C        117.66881       10.57665      -16.97497
C        116.19232       10.83802      -17.24206
O        115.48996        9.89567      -17.58007
C        118.33567        9.64033      -18.01237
C        119.76585        9.17926      -17.64037
C        119.82048        8.10672      -16.56592
N        119.53433        8.35996      -15.26797
O        120.15975        6.97655      -16.88383
H        118.84441       11.99214      -15.91615
H        117.64987       10.03766      -16.01483
H        118.38726       10.16708      -18.98601
H        117.72045        8.73006      -18.17540
H        120.42521       10.03611      -17.38216
H        120.18163        8.71930      -18.56349
H        119.29297        9.29898      -14.94437
H        119.58338        7.60711      -14.56529
N        115.62584       12.05752      -16.99163
C        114.19663       12.32556      -17.13454
C        113.53617       12.66834      -15.79914
O        112.33173       12.88753      -15.81188
C        113.94849       13.44797      -18.18464
C        114.62328       14.78150      -17.81678
C        114.39652       12.99824      -19.58146
H        116.21664       12.82570      -16.64596
H        113.66602       11.41788      -17.49736
H        112.85172       13.62859      -18.24220
H        115.72947       14.69022      -17.80873
H        114.35474       15.55969      -18.56246
H        114.28150       15.13118      -16.82107
H        113.86077       12.06920      -19.87204
H        114.15511       13.78135      -20.33163
H        115.48844       12.80432      -19.60830
N        114.22327       12.72374      -14.61510
C        113.58537       13.07038      -13.34439
C        113.67238       11.93733      -12.34109
O        114.27255       10.90648      -12.61748
C        114.21255       14.35859      -12.78238
C        113.93008       15.52386      -13.69019
N        112.65989       15.96014      -13.87499
O        114.85529       16.08149      -14.25862
H        115.23461       12.52834      -14.59539
H        112.49642       13.24204      -13.48869
H        115.30864       14.20547      -12.67157
H        113.80106       14.61174      -11.78229
H        111.86982       15.50828      -13.39012
H        112.46199       16.75986      -14.49377
N        112.98537       12.05028      -11.16922
C        112.81709       10.95047      -10.21996
C        111.60243       11.18671       -9.32503
O        110.95260       12.21335       -9.46997
C        114.11761       10.64809       -9.43349
C        114.43886       11.59106       -8.28978
C        114.69742       12.95978       -8.48821
C        114.50451       11.06970       -6.98335
C        115.01304       13.78354       -7.39518
C        114.81947       11.88903       -5.90177
C        115.07503       13.24379       -6.09831
O        115.37694       14.00538       -5.02889
H        112.45676       12.92434      -11.03225
H        112.57001       10.04375      -10.81574
H        114.98133       10.59483      -10.12884
H        114.00270        9.62540       -9.01378
H        114.66196       13.38877       -9.48079
H        114.31742       10.02031       -6.79458
H        115.21124       14.83607       -7.55667
H        114.86843       11.46816       -4.90503
H        115.55942       14.94857       -5.09686
N        111.21463       10.27874       -8.38555
C        110.01815       10.47576       -7.57329
C        110.42332       10.96003       -6.19606
O        111.03304       10.18575       -5.47113
C        109.22156        9.15540       -7.48577
C        107.90100        9.31103       -6.71539
C        107.20076        7.98830       -6.59023
O        106.09150        7.82953       -7.07354
O        107.78913        6.97379       -5.92664
H        111.79145        9.43835       -8.22595
H        109.35041       11.21686       -8.05579
H        109.85455        8.38720       -6.98600
H        108.99373        8.79456       -8.51265
H        107.25221       10.03809       -7.25159
H        108.08822        9.69567       -5.69039
N        110.14995       12.21303       -5.72573
C        109.61894       13.33220       -6.50812
C        108.11226       13.42431       -6.40613
O        107.55718       13.11415       -5.36118
C        110.24242       14.64698       -6.00006
C        111.76778       14.67227       -6.21104
C        112.37807       15.82989       -5.47899
O        112.28184       15.89610       -4.26389
O        113.04049       16.79411       -6.13999
H        110.48062       12.42443       -4.77039
H        109.91420       13.26772       -7.57023
H        110.00195       14.74427       -4.91844
H        109.80309       15.52240       -6.53081
H        111.98806       14.73060       -7.30117
H        112.23613       13.74893       -5.81310
N        107.39486       13.92141       -7.45507
C        105.95787       14.11017       -7.43318
H        105.50202       13.79318       -6.47226
H        105.72703       15.18577       -7.59054
H        105.49637       13.52450       -8.25519
H        107.89115       14.20414       -8.31400
Ca       113.80983       18.56166       -4.95699
O        114.79834       16.52523       -1.99717
H        114.83997       15.54343       -1.87630
H        115.46872       16.88146       -1.36119
O        114.94911       19.80291       -2.32634
H        115.00950       19.94975       -1.34916
H        114.69359       20.68505       -2.69635
O        117.27705       17.91328       -3.24780
H        117.98969       18.59239       -3.14413
H        117.75390       17.04563       -3.23936
O        111.72595       18.81135       -2.87402
H        111.66901       18.04852       -2.24555
H        111.43471       19.59545       -2.34476

Ca 1.0



