%chk=apoCaM-CA-Ng.loop1.water4.frame371.chk
%nprocshared=20
%mem=10GB
%nosave
#b3lyp/svp scf=(tight,noincore,xqc) Test 
#IOP(5/87=12) Density=Current Pop=(MK,readradii) iop(6/33=2) iop(6/42=6)

apoCaM-CA-Ng.loop1.water4.frame371 

   0  1 
C         23.97789       76.50654       22.62868
C         24.96912       75.45329       22.21912
O         25.75052       75.67658       21.30593
H         22.94353       76.11578       22.53320
H         24.15722       76.78475       23.69067
H         24.08169       77.42001       22.00627
N         25.01191       74.27763       22.90046
C         26.02054       73.24379       22.67442
C         25.75319       72.37657       21.43809
O         26.51117       71.43745       21.23537
C         26.12511       72.33720       23.92594
C         26.57013       73.10052       25.15210
O         25.81022       74.08591       25.66804
O         27.62561       72.81701       25.69594
H         24.35070       74.16406       23.68475
H         27.01945       73.72222       22.56164
H         26.88332       71.54633       23.73221
H         25.15223       71.83936       24.12881
N         24.71713       72.59979       20.57535
C         24.39521       71.70307       19.45740
C         24.53303       72.41007       18.12257
O         24.44951       73.63126       18.12607
C         22.93657       71.22948       19.65711
C         22.82002       70.38337       20.93078
C         21.44784       69.71856       21.05195
C         21.38051       68.88254       22.33667
N         20.12512       68.13951       22.41723
H         24.09807       73.40945       20.72578
H         25.08561       70.83699       19.43713
H         22.58669       70.64227       18.79628
H         22.24645       72.10075       19.71540
H         23.01529       71.02312       21.81939
H         23.58523       69.57693       20.89710
H         21.29899       69.05282       20.17284
H         20.64326       70.48608       21.06056
H         21.47510       69.55569       23.21816
H         22.22609       68.15885       22.35682
H         20.10759       67.59925       23.31227
H         19.31183       68.79596       22.39636
H         20.06003       67.46724       21.61817
N         24.70252       71.78403       16.90777
C         24.92183       70.36770       16.54769
C         23.86279       69.39599       17.03315
O         23.99685       68.89293       18.13964
C         26.33608       69.82462       16.84175
C         27.36077       70.70858       16.22166
O         27.22481       71.13391       14.95607
O         28.25481       71.16908       16.90355
H         24.69992       72.42003       16.09252
H         24.89441       70.35307       15.43979
H         26.43227       68.81558       16.38404
H         26.52633       69.73449       17.93279
N         22.80780       69.00295       16.26272
C         22.59072       69.48197       14.90551
C         21.35947       68.89477       14.23826
O         20.63227       68.14015       14.86772
H         22.15114       68.32503       16.67674
H         23.46387       69.17733       14.28975
H         22.49791       70.59032       14.91781
N         21.05750       69.15108       12.93073
C         21.85880       69.99782       12.04905
C         22.54758       69.15721       10.99836
O         22.13999       68.02848       10.75774
C         21.02329       71.12911       11.40983
C         19.90867       70.63988       10.51571
O         18.87705       69.93734       11.02134
O         19.91756       70.91182        9.32583
H         20.24249       68.66371       12.53218
H         22.66583       70.49161       12.62380
H         21.70843       71.76585       10.80671
H         20.58613       71.76750       12.20677
N         23.66071       69.63495       10.37506
C         24.40836       68.86589        9.39876
C         24.88340       67.55818        9.98527
O         24.53442       66.51127        9.45908
H         24.01126       70.57387       10.62173
H         25.29357       69.45357        9.06867
H         23.76783       68.67820        8.51069
N         25.69458       67.55124       11.07784
C         26.21535       66.33108       11.69180
C         25.84189       66.25656       13.16828
O         25.23315       67.18605       13.68107
C         27.75089       66.25801       11.46033
C         28.51188       67.48461       11.97864
O         28.01171       66.14107       10.08586
H         25.97250       68.45999       11.47983
H         25.76891       65.43060       11.21649
H         28.16854       65.36740       11.98261
H         27.76081       65.21717        9.82249
H         28.21851       68.40524       11.43395
H         28.32416       67.64163       13.05242
H         29.60195       67.34161       11.82366
N         26.19531       65.16660       13.91816
C         25.95188       65.06957       15.35753
C         27.28302       65.13612       16.08737
O         27.56718       64.31014       16.94575
C         25.11303       63.80379       15.73492
C         25.76827       62.48008       15.24174
C         23.67629       63.94098       15.20503
C         25.15840       61.22767       15.87805
H         26.71443       64.40141       13.46374
H         25.39598       65.96386       15.71565
H         25.05324       63.77914       16.84670
H         26.84428       62.46006       15.50755
H         25.69537       62.40530       14.13534
H         23.21543       64.87368       15.59416
H         23.66729       63.97321       14.09516
H         23.03999       63.09879       15.54408
H         24.08254       61.11895       15.63984
H         25.68486       60.32659       15.49682
H         25.28837       61.26269       16.98140
N         28.16326       66.12738       15.77819
C         29.45244       66.26380       16.44318
C         29.26027       66.80805       17.84708
O         28.15136       67.17540       18.20766
C         30.42727       67.14498       15.61743
C         29.99851       68.61618       15.51472
O         30.55313       66.59181       14.33254
H         27.91600       66.77309       15.02099
H         29.91839       65.25383       16.49630
H         31.42044       67.11407       16.12154
H         31.37318       66.97681       13.92671
H         29.94644       69.07315       16.52413
H         30.74685       69.18304       14.92199
H         29.01519       68.72477       15.01928
N         30.32145       66.88530       18.69484
C         30.22442       67.42863       20.04511
C         31.21013       68.57535       20.22620
O         31.96456       68.88723       19.31708
C         30.41608       66.29408       21.08316
C         31.76813       65.58022       20.97669
O         29.38498       65.35385       20.91288
H         31.23402       66.53306       18.37348
H         29.21277       67.85447       20.22416
H         30.33803       66.74357       22.09992
H         29.18969       64.96385       21.80501
H         31.84035       64.80817       21.77163
H         31.87198       65.06700       19.99817
H         32.60306       66.29923       21.10658
N         31.24291       69.25329       21.40756
C         32.16164       70.35367       21.67579
C         31.85438       71.55056       20.79691
O         32.77988       72.09322       20.20722
C         32.10758       70.78241       23.15713
C         32.52364       69.64288       24.10709
C         32.55295       70.12445       25.56123
C         32.86310       68.96876       26.52239
N         32.88476       69.43600       27.90804
H         30.59095       68.96602       22.14943
H         33.20908       70.01978       21.49366
H         31.08672       71.13732       23.41834
H         32.82043       71.62638       23.29777
H         33.53480       69.26843       23.83078
H         31.80389       68.80238       24.02194
H         31.56113       70.55030       25.82601
H         33.32512       70.91823       25.66919
H         33.84839       68.51685       26.27029
H         32.08031       68.18463       26.41499
H         31.96593       69.87003       28.15648
H         33.05541       68.62240       28.54214
H         33.65160       70.13517       28.03820
N         30.57936       72.02072       20.65380
C         30.28193       73.21404       19.86842
C         30.59323       74.43338       20.70008
O         29.96313       74.62585       21.73217
C         28.81039       73.22658       19.40228
C         28.36499       74.44520       18.54592
C         29.28527       74.86342       17.40778
O         30.38515       75.30743       17.67720
O         28.90766       74.90029       16.11072
H         29.80402       71.50210       21.09689
H         30.89182       73.17942       18.93916
H         28.13898       73.17234       20.28282
H         28.65318       72.30284       18.83449
H         28.29475       75.32554       19.22153
H         27.33885       74.24267       18.16816
N         31.55598       75.30832       20.31050
C         31.84732       76.50525       21.06327
H         32.65690       77.07611       20.56271
H         30.93975       77.14461       21.11534
H         32.17325       76.23579       22.08953
H         32.09647       75.12662       19.45188
Ca        27.97234       73.22261       14.96531
O         31.23995       73.39493       14.93048
H         31.72810       73.02812       15.70991
H         31.94289       73.80052       14.36335
O         27.97182       76.05962       13.36288
H         27.65691       76.45857       14.21244
H         28.69739       76.66195       13.06133
O         30.07619       74.14735       11.95654
H         30.75930       73.70306       11.39430
H         30.42878       75.06173       12.09680
O         29.73991       71.07729       12.65798
H         29.12406       71.20505       11.89311
H         30.50686       70.57931       12.27815

Ca 1.0



