%chk=apoCaM-CA-Ng.loop3.water3.frame845.chk
%nprocshared=20
%mem=10GB
%nosave
#b3lyp/svp scf=(tight,noincore,xqc) Test 
#IOP(5/87=12) Density=Current Pop=(MK,readradii) iop(6/33=2) iop(6/42=6)

apoCaM-CA-Ng.loop3.water3.frame845 

   0  1 
C         81.49777      -25.88871       77.59115
C         82.70527      -26.52975       76.98425
O         82.73894      -27.74654       76.89668
H         80.77763      -26.66446       77.93235
H         81.78448      -25.25256       78.45171
H         80.99905      -25.26934       76.81579
N         83.73950      -25.76722       76.52870
C         84.86088      -26.32059       75.78051
C         86.12647      -26.26395       76.61161
O         86.55631      -25.18801       77.00389
C         84.96899      -25.55758       74.45255
C         85.84607      -26.19179       73.41840
O         85.91492      -25.66823       72.31957
O         86.52761      -27.33202       73.63608
H         83.70592      -24.74634       76.67692
H         84.65295      -27.38262       75.53770
H         85.30090      -24.51326       74.64210
H         83.96074      -25.50864       73.99821
N         86.73977      -27.42822       76.96281
C         87.88382      -27.51503       77.86093
C         89.11821      -26.85550       77.27362
O         89.86752      -26.25565       78.03177
C         88.14317      -28.99922       78.21231
C         89.06195      -29.21520       79.42564
C         89.09460      -30.70969       79.79221
C         89.87319      -30.97327       81.08723
N         89.82451      -32.39345       81.44055
H         86.32677      -28.30981       76.62378
H         87.60401      -27.00946       78.81290
H         88.53735      -29.54562       77.33195
H         87.15961      -29.44184       78.48805
H         88.64224      -28.65241       80.28844
H         90.08825      -28.84226       79.21906
H         89.54480      -31.28997       78.95704
H         88.05134      -31.06447       79.94670
H         89.42127      -30.38222       81.91524
H         90.93139      -30.65544       80.96311
H         90.35227      -32.54663       82.32997
H         88.83266      -32.69474       81.58528
H         90.25811      -32.97018       80.68358
N         89.39440      -26.92429       75.93446
C         90.60030      -26.35479       75.34115
C         90.32041      -25.20341       74.38614
O         91.29485      -24.61570       73.93478
C         91.44567      -27.46760       74.67782
C         90.76607      -28.17499       73.53661
O         90.46729      -27.56723       72.52430
O         90.53797      -29.50008       73.60328
H         88.73179      -27.40512       75.31158
H         91.23709      -25.91562       76.13937
H         91.70018      -28.21744       75.45680
H         92.39808      -27.03775       74.29826
N         89.05891      -24.79555       74.03938
C         88.83903      -23.62666       73.19728
C         88.26044      -23.95957       71.84573
O         87.36369      -23.25469       71.40384
H         88.23427      -25.29725       74.39224
H         89.79743      -23.11177       72.97928
H         88.20811      -22.88202       73.73166
N         88.79885      -24.95946       71.08829
C         88.53256      -25.12017       69.66208
C         87.76475      -26.42353       69.32426
O         88.48893      -27.56069       69.69986
C         89.88688      -25.07677       68.91764
C         90.67605      -23.83682       69.26059
N         91.87882      -23.93461       69.87707
O         90.22207      -22.73583       68.98841
H         89.51463      -25.56357       71.51096
H         87.90227      -24.27785       69.29982
H         89.73032      -25.11430       67.81935
H         90.47831      -25.97332       69.20822
H         92.27673      -24.85337       70.12311
H         92.41518      -23.08821       70.11770
N         87.45275      -26.42687       67.88512
C         87.07352      -27.70561       67.26323
C         85.82850      -28.31959       67.85282
O         84.83343      -27.62210       67.99639
H         86.70508      -25.71546       67.70795
H         87.92666      -28.41645       67.28024
H         86.85723      -27.49103       66.19429
N         85.79056      -29.65128       68.15996
C         84.60065      -30.28376       68.72332
C         84.34730      -29.77139       70.13373
O         85.14149      -28.98947       70.63821
C         84.73198      -31.82859       68.74464
C         84.84109      -32.46829       67.37519
C         83.83984      -32.27202       66.40464
C         85.92269      -33.31399       67.07260
C         83.92282      -32.90579       65.15987
C         85.99843      -33.95347       65.83008
C         85.00093      -33.75355       64.87068
O         85.08508      -34.38520       63.68175
H         86.61910      -30.23170       67.95714
H         83.72329      -30.01978       68.09373
H         83.82306      -32.26573       69.20667
H         85.59780      -32.11275       69.38258
H         82.98825      -31.63659       66.60857
H         86.69954      -33.49626       67.80403
H         83.14359      -32.74537       64.42474
H         86.82975      -34.61357       65.61589
H         84.41065      -34.28425       62.99460
N         83.23363      -30.16522       70.81991
C         82.86767      -29.71858       72.16352
C         83.87285      -30.21958       73.19976
O         85.05978      -29.96802       73.06356
C         82.65957      -28.17681       72.22724
C         82.11336      -27.71925       73.60500
C         81.74220      -27.68299       71.09396
C         80.73547      -28.26213       74.00077
H         82.57143      -30.80210       70.35127
H         81.88492      -30.18147       72.38745
H         83.63981      -27.67367       72.08765
H         82.04255      -26.61208       73.61062
H         82.83473      -28.02257       74.38366
H         82.18905      -27.90528       70.10254
H         80.74664      -28.16948       71.13843
H         81.61500      -26.58147       71.15873
H         79.95824      -27.94722       73.27621
H         80.73539      -29.36568       74.08635
H         80.45876      -27.85382       74.99539
N         83.44419      -30.93024       74.28349
C         84.34533      -31.51848       75.27466
C         84.13673      -33.02322       75.41773
O         84.86888      -33.64173       76.18069
C         84.13541      -30.83320       76.62948
O         82.83334      -31.07934       77.09729
H         82.43039      -31.04452       74.42194
H         85.39759      -31.36183       74.97122
H         84.33032      -29.74385       76.50579
H         84.86446      -31.21456       77.37703
H         82.43886      -30.21061       77.36319
N         83.14687      -33.67883       74.74698
C         82.87155      -35.10136       74.89155
C         84.02764      -35.92789       74.35774
O         84.50360      -35.60143       73.27873
C         81.61104      -35.45273       74.10989
H         82.52957      -33.15120       74.11610
H         82.66023      -35.30467       75.95810
H         81.72696      -35.21977       73.03088
H         81.41918      -36.52927       74.21903
H         80.74591      -34.88545       74.51737
N         84.57458      -36.99662       75.00997
C         84.08804      -37.62490       76.23793
C         84.04127      -39.13788       76.04866
O         85.05802      -39.68594       75.64377
C         85.05663      -37.29872       77.37324
H         85.41936      -37.41131       74.58356
H         83.10088      -37.24824       76.54635
H         84.70679      -37.77275       78.31569
H         86.08059      -37.66237       77.14201
H         85.09348      -36.19955       77.52676
N         82.97093      -39.93029       76.35618
C         81.69739      -39.49525       76.92020
C         80.88396      -38.72725       75.90076
O         80.42004      -37.64015       76.21459
C         80.90153      -40.73044       77.40923
C         79.61325      -40.34785       78.15753
C         78.92040      -41.56784       78.69428
O         78.73535      -41.70920       80.02109
O         78.51662      -42.43307       77.93363
H         83.10639      -40.94691       76.22908
H         81.89016      -38.87642       77.82555
H         81.54741      -41.29552       78.11828
H         80.65993      -41.39859       76.55292
H         78.91601      -39.80762       77.48256
H         79.87098      -39.67912       79.00797
N         80.66163      -39.25099       74.66038
C         79.85975      -38.60316       73.64096
H         79.38368      -37.66848       74.00521
H         80.50087      -38.35964       72.76676
H         79.05551      -39.29248       73.31247
H         81.09477      -40.15323       74.41308
Ca        87.71073      -27.90045       71.80999
O         87.68599      -31.44774       72.44052
H         88.42363      -31.78999       73.00581
H         87.02153      -32.18125       72.42680
O         87.51350      -30.09946       75.03635
H         87.83438      -30.93780       75.45383
H         88.33480      -29.57874       74.87099
O         89.38970      -30.29029       70.26496
H         89.98604      -30.86022       70.81200
H         90.00584      -29.75384       69.70594

Ca 1.0



