%chk=apoCaM-CA-Ng.loop1.water6.frame642.chk
%nprocshared=20
%mem=10GB
%nosave
#b3lyp/svp scf=(tight,noincore,xqc) Test 
#IOP(5/87=12) Density=Current Pop=(MK,readradii) iop(6/33=2) iop(6/42=6)

apoCaM-CA-Ng.loop1.water6.frame642 

   0  1 
C         64.09682       44.86283       38.27031
C         63.26748       43.62124       38.40686
O         63.77312       42.53678       38.15530
H         65.12524       44.61455       37.93143
H         63.63483       45.54013       37.52264
H         64.15563       45.38213       39.24941
N         61.96346       43.71426       38.78879
C         61.07738       42.56221       38.91385
C         60.00685       42.56252       37.83746
O         59.87992       43.52559       37.09931
C         60.49643       42.43535       40.34690
C         60.26313       43.70905       41.14318
O         60.77375       43.79350       42.24921
O         59.52812       44.75761       40.71812
H         61.57278       44.65155       38.96545
H         61.63339       41.62195       38.70293
H         61.23683       41.85342       40.94048
H         59.57351       41.81805       40.33108
N         59.25061       41.43945       37.65191
C         58.27115       41.25609       36.58655
C         56.90956       41.10596       37.23397
O         56.28795       40.05543       37.16612
C         58.70739       40.05222       35.71175
C         57.77997       39.77901       34.51129
C         58.36319       38.67601       33.60848
C         57.42869       38.28495       32.44953
N         56.27372       37.50907       32.91034
H         59.39524       40.64200       38.29093
H         58.22867       42.14590       35.91929
H         58.77876       39.13427       36.33578
H         59.72044       40.27345       35.31756
H         57.66358       40.70460       33.90514
H         56.78481       39.47723       34.88233
H         58.60439       37.76329       34.19575
H         59.31015       39.06463       33.17616
H         58.00289       37.65111       31.73772
H         57.09485       39.19392       31.90150
H         56.60154       36.62001       33.35503
H         55.69382       38.04815       33.58974
H         55.67675       37.26428       32.08776
N         56.40361       42.16910       37.91165
C         55.12057       42.19011       38.59791
C         54.24638       43.27706       37.97643
O         54.04071       44.30517       38.60619
C         55.35439       42.34604       40.12512
C         56.08465       43.57622       40.60850
O         56.33687       43.71209       41.92369
O         56.44480       44.45223       39.84314
H         56.97532       43.02487       37.94268
H         54.58548       41.22149       38.51124
H         55.94270       41.46443       40.46105
H         54.36906       42.31374       40.63714
N         53.67839       43.16163       36.73855
C         53.65655       41.95904       35.91666
C         54.28213       42.13688       34.55442
O         54.14407       41.22420       33.74886
H         53.14398       43.96781       36.37741
H         52.58663       41.69824       35.76640
H         54.13005       41.09056       36.40019
N         55.00213       43.24342       34.21442
C         55.57744       43.42462       32.88139
C         56.58427       44.57011       32.81836
O         56.73184       45.31628       33.77601
C         54.44597       43.64473       31.84131
C         53.58654       44.85856       32.12195
O         52.66101       45.12298       31.37203
O         53.81189       45.65237       33.18830
H         55.16464       43.95706       34.93571
H         56.15234       42.50474       32.62879
H         53.77865       42.75861       31.81928
H         54.88366       43.74816       30.82634
N         57.34361       44.74436       31.70218
C         58.32532       45.80557       31.55069
C         59.70274       45.21092       31.41531
O         60.30813       45.34490       30.36107
H         57.23445       44.08386       30.91590
H         58.32782       46.50785       32.41223
H         58.06262       46.39153       30.64309
N         60.26939       44.54801       32.46454
C         61.58745       43.92031       32.39089
C         62.67509       44.87570       32.83994
O         62.64155       45.35212       33.96614
C         61.64711       42.57628       33.16089
C         61.39911       42.68833       34.66761
O         60.70735       41.69279       32.60770
H         59.74541       44.51994       33.35101
H         61.79190       43.64646       31.33250
H         62.67615       42.17057       33.01192
H         61.03228       40.77443       32.79835
H         60.36856       43.04221       34.84112
H         61.51257       41.69420       35.14357
H         62.12191       43.35858       35.17229
N         63.67821       45.20719       31.97710
C         64.78513       46.09150       32.32583
C         64.55897       47.46563       31.70030
O         65.14275       48.43333       32.16750
C         66.13447       45.46191       31.85975
C         66.28384       43.95994       32.23047
C         67.35275       46.26837       32.34272
C         66.31850       43.65074       33.72618
H         63.65028       44.82552       31.01916
H         64.79448       46.23431       33.42967
H         66.13639       45.48664       30.74639
H         67.21989       43.57190       31.77205
H         65.44880       43.38301       31.77780
H         67.32360       47.30801       31.96235
H         67.39350       46.30287       33.45116
H         68.28863       45.80861       31.96067
H         66.41650       42.55209       33.86177
H         67.19229       44.13123       34.21024
H         65.38324       43.98151       34.22141
N         63.67419       47.62855       30.67351
C         63.28899       48.90861       30.09983
C         63.63028       48.92278       28.61177
O         64.15765       47.94000       28.10632
C         61.77005       49.08186       30.37932
C         61.50263       49.13789       31.89006
O         61.27260       50.25847       29.80303
H         63.19588       46.81012       30.27462
H         63.84295       49.74901       30.57425
H         61.24262       48.19845       29.94347
H         60.30503       50.10907       29.63518
H         61.85440       48.21704       32.40085
H         62.02410       50.01428       32.33326
H         60.41397       49.23843       32.07823
N         63.36964       50.02391       27.85000
C         63.68714       50.12620       26.43246
C         64.61261       51.32283       26.24690
O         65.76418       51.13681       25.88056
C         62.36348       50.17625       25.61510
C         62.60156       50.27393       24.10753
O         61.54499       51.23880       26.03325
H         62.93462       50.84502       28.29062
H         64.23290       49.21753       26.09172
H         61.83402       49.21494       25.82127
H         60.60778       50.99704       25.81145
H         63.12626       51.21842       23.85297
H         63.20230       49.40921       23.75654
H         61.62458       50.25966       23.57705
N         64.16852       52.58181       26.51282
C         64.97900       53.79054       26.48275
C         64.73770       54.52955       27.78779
O         63.58401       54.75081       28.13362
C         64.59049       54.61366       25.24469
C         65.31894       55.97045       25.17672
C         65.09459       56.67914       23.83066
C         65.94130       56.05939       22.70169
N         65.65925       56.70026       21.41847
H         63.17976       52.70928       26.76141
H         66.06155       53.55400       26.37299
H         63.49345       54.79498       25.21847
H         64.85368       53.98899       24.36600
H         66.41225       55.86030       25.34960
H         64.90593       56.60626       25.98968
H         65.40987       57.74049       23.93087
H         64.01144       56.66321       23.57967
H         65.75068       54.97173       22.59928
H         67.01839       56.19555       22.95203
H         65.79597       57.73470       21.48485
H         66.31032       56.31698       20.69515
H         64.67588       56.48972       21.13089
N         65.77292       54.93722       28.57419
C         65.54888       55.51782       29.89432
C         65.20105       54.42640       30.90316
O         64.10014       54.49322       31.43146
C         66.71523       56.41989       30.35893
C         66.74356       57.73664       29.56543
C         67.86658       58.62067       30.02318
O         69.02527       58.26259       29.88600
O         67.60094       59.81870       30.57895
H         66.73645       54.82032       28.22686
H         64.66925       56.20162       29.84435
H         67.69273       55.90757       30.28200
H         66.55378       56.68932       31.42644
H         65.78035       58.27060       29.73130
H         66.85287       57.54210       28.47775
N         66.02033       53.39136       31.26308
C         67.34550       53.11013       30.75031
H         68.07628       53.15194       31.58554
H         67.35919       52.08834       30.31774
H         67.67551       53.79898       29.96302
H         65.66957       52.73059       31.97417
Ca        58.77910       45.36764       38.69071
O         58.80304       47.53597       35.89161
H         59.65495       47.97563       35.64485
H         58.22917       47.64005       35.09180
O         56.80522       45.45012       36.72460
H         55.97502       45.68782       36.24311
H         57.19848       44.69630       36.21717
O         61.21396       47.06154       37.89215
H         61.93732       47.40595       38.47365
H         61.63258       46.96394       37.00053
O         58.12199       47.47951       41.26062
H         58.61801       47.12692       42.04151
H         57.45873       48.10408       41.64811
O         55.81620       47.33009       38.85001
H         55.46582       47.15443       39.75904
H         55.09508       47.02350       38.24481
O         58.98674       48.96579       38.74491
H         59.80346       49.11937       39.28346
H         59.11513       49.52191       37.93604

Ca 1.0



