%chk=apoCaM-CA-Ng.loop2.water2.frame904.chk
%nprocshared=20
%mem=10GB
%nosave
#b3lyp/svp scf=(tight,noincore,xqc) Test 
#IOP(5/87=12) Density=Current Pop=(MK,readradii) iop(6/33=2) iop(6/42=6)

apoCaM-CA-Ng.loop2.water2.frame904 

   -2  1 
C         97.23484       11.88174       44.94454
C         96.34210       12.56837       45.93692
O         96.73710       13.59478       46.47180
H         98.18606       11.58911       45.43627
H         96.75589       10.97053       44.52850
H         97.45720       12.57562       44.10670
N         95.11305       12.05786       46.23744
C         94.20903       12.68841       47.19669
C         93.71640       14.06241       46.72543
O         93.09963       14.75388       47.52395
C         93.02327       11.73901       47.48567
C         92.08827       12.25957       48.54211
O         90.91074       12.44618       48.27991
O         92.54280       12.51601       49.78368
H         94.82892       11.17162       45.79106
H         94.77634       12.82305       48.14574
H         93.42365       10.76469       47.84318
H         92.46178       11.55675       46.54280
N         93.95319       14.53216       45.46255
C         93.55446       15.85976       45.00555
C         92.63944       15.73311       43.79480
O         93.07906       15.15241       42.81159
C         94.80855       16.64886       44.62659
H         94.44770       13.93787       44.78251
H         93.06992       16.42437       45.82205
H         94.53118       17.66803       44.28388
H         95.47562       16.73911       45.51028
H         95.36807       16.13438       43.81531
N         91.36043       16.21490       43.74043
C         90.66464       16.91760       44.81824
C         89.15452       16.69359       44.75388
O         88.66347       16.08654       43.81348
C         91.05382       18.41692       44.84224
C         90.75376       19.14247       43.55721
O         91.30683       18.81673       42.51897
O         89.92004       20.19840       43.55950
H         90.84644       16.04183       42.86381
H         90.93894       16.44774       45.78432
H         92.14221       18.51749       45.03350
H         90.52092       18.92334       45.67513
N         88.36771       17.07385       45.80055
C         86.94905       16.75969       45.89310
C         86.15312       17.96488       46.33111
O         85.65742       17.94219       47.44887
H         88.81262       17.51753       46.61897
H         86.84717       15.98652       46.68641
H         86.53577       16.32399       44.95998
N         85.98263       19.07981       45.56865
C         86.43818       19.24237       44.19402
C         85.54852       18.42024       43.26874
O         84.33595       18.57018       43.33601
C         86.38059       20.74517       43.83424
C         87.07669       21.12396       42.55142
N         87.14817       22.42667       42.19838
O         87.61203       20.27945       41.85093
H         85.48320       19.87043       46.00846
H         87.50694       18.94983       44.12487
H         86.91478       21.30168       44.63560
H         85.32587       21.09609       43.81180
H         86.72000       23.15537       42.78699
H         87.64896       22.71366       41.34864
N         86.08066       17.54661       42.36931
C         85.28253       16.69082       41.49857
C         85.36490       17.08262       40.03566
O         84.81525       16.36070       39.21613
H         87.10303       17.48800       42.28730
H         84.20660       16.71093       41.77669
H         85.63877       15.64631       41.62723
N         85.96494       18.23950       39.63632
C         85.99789       18.71139       38.25518
C         87.43934       19.05085       37.81923
O         88.43064       18.39625       38.54708
C         85.12913       19.99358       38.14282
C         83.63744       19.67292       38.10179
O         85.37386       20.83465       39.24618
H         86.37612       18.85446       40.34642
H         85.61419       17.93503       37.55702
H         85.34839       20.51856       37.18230
H         85.72182       21.69460       38.90880
H         83.41285       19.06249       37.20097
H         83.31784       19.12292       39.01041
H         83.05779       20.61908       38.03019
N         87.66089       18.88826       36.37776
C         88.91915       19.50216       35.89404
C         88.78044       21.01960       35.81692
O         87.87124       21.48999       35.14549
C         89.27614       18.88652       34.50757
C         90.56472       19.52749       33.92063
C         89.43847       17.35750       34.65345
C         90.93200       19.00848       32.52740
H         86.84760       19.25009       35.82676
H         89.75991       19.24471       36.57655
H         88.43472       19.08420       33.80599
H         91.42333       19.36135       34.60730
H         90.41169       20.62289       33.81783
H         88.51809       16.89655       35.06851
H         89.61057       16.87099       33.67340
H         90.28811       17.11957       35.32971
H         90.08953       19.16782       31.82100
H         91.81953       19.55910       32.15083
H         91.19697       17.93234       32.54929
N         89.67031       21.84503       36.45213
C         89.57505       23.30216       36.40495
C         90.74268       23.96446       35.68837
O         90.64050       25.16212       35.46060
C         89.50406       23.90719       37.82789
C         88.26548       23.53084       38.57825
O         87.43603       24.38921       38.83292
O         88.02345       22.27284       38.97468
H         90.44893       21.42522       36.98085
H         88.66482       23.60551       35.84086
H         89.49120       25.01590       37.72753
H         90.40206       23.63130       38.42227
N         91.90173       23.31468       35.36270
C         93.02844       24.05446       34.80005
C         94.32883       23.26011       34.88784
O         94.40099       22.21248       34.26472
C         92.77594       24.43468       33.31797
C         93.96810       25.18421       32.75943
C         94.77301       24.60199       31.76363
C         94.31152       26.45042       33.26294
C         95.91013       25.26881       31.29658
C         95.44807       27.11394       32.79222
C         96.24938       26.52189       31.81309
H         92.02491       22.32501       35.61399
H         93.12815       24.97935       35.39114
H         91.86309       25.05550       33.20052
H         92.61283       23.49550       32.74347
H         94.53529       23.62394       31.36416
H         93.70628       26.91759       34.02936
H         96.53424       24.80960       30.54076
H         95.71205       28.08378       33.19333
H         97.13425       27.03305       31.45649
N         95.43097       23.72487       35.57182
C         96.74493       23.08973       35.51682
C         96.80480       21.64219       35.95944
O         97.83734       21.01586       35.76042
C         97.58935       23.92622       36.48825
C         96.97921       25.29592       36.34018
C         95.49212       24.97265       36.31215
H         97.09282       23.18026       34.46370
H         97.36959       23.60705       37.53525
H         98.68565       23.86795       36.32322
H         97.26982       26.03974       37.11232
H         97.27131       25.68317       35.33704
H         95.06985       24.80108       37.32750
H         95.00275       25.83514       35.82235
N         95.77900       21.06685       36.64200
C         95.85017       19.71197       37.17383
C         95.90798       18.63720       36.10096
O         96.27791       17.51663       36.42384
C         94.66789       19.46514       38.12066
C         93.30281       19.48735       37.40993
C         92.23923       19.47685       38.45200
O         92.02504       20.48674       39.10273
O         91.60353       18.33310       38.75752
H         94.96237       21.64844       36.87457
H         96.78100       19.65009       37.78214
H         94.70022       20.25978       38.89876
H         94.78287       18.48357       38.63342
H         93.21442       18.59741       36.75008
H         93.14818       20.38519       36.77413
N         95.50862       18.87831       34.82157
C         95.53351       17.84945       33.80579
H         96.57845       17.51653       33.63275
H         94.91493       16.98327       34.12541
H         95.12013       18.24682       32.85464
H         95.14581       19.80371       34.55903
Ca        89.24389       20.40113       39.12467
O         91.46730       22.12247       41.45473
H         92.15253       21.74520       42.06207
H         91.36916       23.06419       41.74334
O         89.58849       17.39740       40.81707
H         89.06050       16.79879       41.39676
H         90.10800       16.77815       40.24747

Ca 1.0



