%chk=apoCaM-CA-Ng.loop2.water4.frame1216.chk
%nprocshared=20
%mem=10GB
%nosave
#b3lyp/svp scf=(tight,noincore,xqc) Test 
#IOP(5/87=12) Density=Current Pop=(MK,readradii) iop(6/33=2) iop(6/42=6)

apoCaM-CA-Ng.loop2.water4.frame1216 

   -2  1 
C         26.64028       86.26828       95.61887
C         26.55861       85.80253       94.18338
O         25.88601       86.47859       93.41904
H         27.05486       87.29791       95.63749
H         25.62008       86.28966       96.05596
H         27.28114       85.66282       96.28117
N         27.19944       84.70015       93.68832
C         28.04522       83.79434       94.46196
C         27.89252       82.34554       94.02452
O         27.24233       82.07735       93.02601
C         29.51564       84.26050       94.40185
C         30.11638       84.30494       93.01637
O         31.38741       84.72098       92.86601
O         29.47655       83.97767       92.02980
H         27.10944       84.52897       92.67627
H         27.71043       83.78737       95.51530
H         30.14147       83.59264       95.03030
H         29.57256       85.28326       94.83146
N         28.43300       81.35784       94.80121
C         28.30728       79.91774       94.59232
C         29.30998       79.35218       93.59817
O         30.06462       78.47587       93.99865
C         26.86782       79.47608       94.27671
H         28.89274       81.64619       95.67853
H         28.54620       79.43677       95.56970
H         26.17166       79.85764       95.05409
H         26.52586       79.81963       93.28058
H         26.80853       78.36632       94.27431
N         29.35059       79.73901       92.28937
C         30.15075       79.03518       91.28432
C         31.21912       79.88013       90.61582
O         31.36822       81.04918       90.93277
C         29.18326       78.35569       90.29154
C         28.06021       79.16483       89.65967
O         27.08977       78.54019       89.26059
O         28.04416       80.51119       89.49022
H         28.72811       80.49115       91.97138
H         30.72947       78.21180       91.75788
H         28.66288       77.59681       90.91883
H         29.71421       77.77568       89.50781
N         32.07331       79.29043       89.72414
C         33.12052       79.99329       88.99984
C         32.52295       80.84566       87.90256
O         31.84663       80.31454       87.03447
H         31.99854       78.27484       89.56665
H         33.78773       79.25298       88.50972
H         33.74207       80.57839       89.71479
N         32.71096       82.18851       87.90484
C         32.04974       83.11374       86.98517
C         32.67152       83.10340       85.59358
O         33.88170       83.22755       85.46476
C         32.10522       84.53342       87.57393
C         31.22124       84.68350       88.83656
N         31.52818       85.93550       89.51505
O         31.37773       83.62872       89.74096
H         33.28103       82.58065       88.67047
H         30.96808       82.86871       86.91187
H         31.71228       85.26064       86.82868
H         33.16417       84.79653       87.78750
H         31.38044       86.73483       88.86024
H         30.87547       86.04293       90.32337
N         31.86260       83.03557       84.49705
C         32.35800       83.08790       83.12156
C         31.22407       83.01498       82.10034
O         30.06698       82.95478       82.49090
H         30.84935       82.97309       84.66796
H         33.03453       82.22223       82.95861
H         32.92991       84.02832       82.96377
N         31.44084       82.97238       80.75560
C         32.74207       83.06453       80.10985
C         33.22027       84.50543       80.11099
O         34.33435       84.76130       80.54659
C         32.68230       82.50399       78.65653
C         32.33545       81.00640       78.65881
O         31.74162       83.20352       77.88182
H         30.61195       82.85145       80.15176
H         33.48123       82.42098       80.63720
H         33.69567       82.62215       78.20443
H         31.90650       82.95818       76.93339
H         31.33209       80.82892       79.09941
H         32.33347       80.61248       77.62024
H         33.08935       80.43727       79.24313
N         32.43482       85.49593       79.59297
C         32.90754       86.86639       79.40942
C         33.20677       87.57778       80.73496
O         32.71529       87.12844       81.76100
C         31.87470       87.72965       78.60297
C         30.53791       87.92588       79.37984
C         31.65434       87.15273       77.19398
C         29.57921       88.91472       78.71530
H         31.50006       85.23848       79.25052
H         33.83398       86.76202       78.81301
H         32.31486       88.73052       78.45393
H         30.75405       88.34594       80.38513
H         30.01561       86.95675       79.52078
H         31.02392       87.82957       76.58306
H         32.62914       87.05868       76.67077
H         31.16710       86.15776       77.22723
H         30.07345       89.89997       78.59226
H         29.23381       88.54942       77.72862
H         28.68442       89.04904       79.36024
N         33.91715       88.75022       80.80518
C         34.74559       89.28513       79.72454
C         34.10617       90.47167       79.01720
O         33.13607       91.03857       79.49544
C         36.14511       89.61172       80.30158
C         37.16952       89.99462       79.27138
O         37.74895       91.20958       79.31313
O         37.49536       89.19981       78.40365
H         33.95460       89.23855       81.71461
H         34.88343       88.51759       78.94830
H         36.53498       88.71773       80.83543
H         36.04249       90.43486       81.04301
N         34.59727       90.83597       77.80028
C         34.08935       91.91084       76.95537
C         32.68706       91.58181       76.43471
O         32.50975       90.47007       75.96094
C         35.03396       92.03595       75.73056
C         34.78834       93.28994       74.93871
C         34.25616       93.23609       73.64103
C         35.11446       94.53570       75.50104
C         34.04045       94.41743       72.92398
C         34.90363       95.71142       74.77982
C         34.36426       95.65330       73.49278
H         35.39463       90.29532       77.43760
H         34.13012       92.85761       77.53093
H         34.92197       91.12763       75.09556
H         36.09656       92.06863       76.05869
H         34.00058       92.28551       73.18945
H         35.53642       94.59291       76.49730
H         33.62322       94.37534       71.92667
H         35.15985       96.66596       75.22050
H         34.20003       96.56626       72.93635
N         31.66092       92.49429       76.38923
C         31.74138       93.88842       76.78202
C         31.43271       94.10351       78.25301
O         31.55875       95.22836       78.70854
C         30.64821       94.53762       75.92218
C         29.56909       93.46694       75.94585
C         30.39549       92.20074       75.73644
H         32.71545       94.34565       76.53149
H         30.32354       95.54934       76.24790
H         31.01733       94.60870       74.87309
H         29.13670       93.44351       76.97154
H         28.73605       93.59663       75.22309
H         29.87502       91.31651       76.16353
H         30.59615       92.03836       74.65412
N         30.95461       93.09207       79.03563
C         30.55647       93.28385       80.42342
C         29.44927       94.33294       80.49802
O         28.41059       94.12384       79.88734
C         30.06037       91.93799       80.99619
C         29.68490       92.01552       82.47933
C         29.26086       90.66432       82.97882
O         29.95100       90.06372       83.96661
O         28.29198       90.10282       82.49177
H         30.83076       92.15904       78.62322
H         31.45369       93.58771       80.99934
H         30.87173       91.18632       80.88273
H         29.18128       91.58908       80.40844
H         28.85099       92.73368       82.63234
H         30.56567       92.36370       83.06063
N         29.57067       95.49427       81.20368
C         30.74562       95.85840       81.96510
H         31.63003       95.93276       81.29838
H         30.59115       96.84788       82.44561
H         30.93173       95.10745       82.76137
H         28.78052       96.15814       81.19986
Ca        29.54137       82.23310       89.54782
O         25.97078       82.23737       88.05398
H         25.75582       81.27126       88.02980
H         25.54037       82.61028       87.24457
O         27.76947       85.14154       88.47102
H         28.41600       85.36190       87.75430
H         27.04385       85.80701       88.36435
O         25.92169       83.67898       90.53625
H         25.41099       84.51883       90.41823
H         25.38385       83.14790       91.17554
O         28.52628       81.08192       86.71846
H         28.78266       81.97144       86.36927
H         29.33387       80.75775       87.18918

Ca 1.0



