%chk=apoCaM-CA-Ng.loop2.water3.frame540.chk
%nprocshared=20
%mem=10GB
%nosave
#b3lyp/svp scf=(tight,noincore,xqc) Test 
#IOP(5/87=12) Density=Current Pop=(MK,readradii) iop(6/33=2) iop(6/42=6)

apoCaM-CA-Ng.loop2.water3.frame540 

   -2  1 
C         77.55001       25.83656       45.05504
C         77.27381       24.51524       44.38881
O         77.14047       24.48281       43.17403
H         78.48163       26.27981       44.64656
H         76.70582       26.53471       44.86782
H         77.66648       25.72370       46.15403
N         77.13427       23.38179       45.13264
C         76.80275       22.08254       44.55455
C         77.96989       21.50027       43.77177
O         79.02442       21.27689       44.35057
C         76.38946       21.10291       45.66916
C         76.01186       19.75614       45.11557
O         75.10147       19.65354       44.30861
O         76.68666       18.65707       45.50223
H         77.20326       23.46423       46.15916
H         75.91415       22.21057       43.89593
H         75.51412       21.52203       46.21158
H         77.22363       20.98414       46.39527
N         77.83079       21.21085       42.44624
C         78.88276       20.61168       41.62552
C         79.53144       21.70314       40.78659
O         79.07210       22.83428       40.88538
C         78.25053       19.49828       40.77854
H         76.94553       21.46481       41.98055
H         79.66947       20.17796       42.27851
H         78.98267       18.96358       40.15756
H         77.77222       18.74452       41.43861
H         77.47572       19.92329       40.10470
N         80.62388       21.53877       39.97929
C         81.36294       20.31195       39.66527
C         81.86781       19.54316       40.88056
O         82.57271       20.09803       41.70805
C         82.54621       20.62409       38.70623
C         83.41814       21.78491       39.12454
O         83.53220       22.75291       38.38865
O         84.06916       21.77618       40.29744
H         80.95846       22.40564       39.53012
H         80.70945       19.63327       39.08504
H         82.12316       20.87365       37.70898
H         83.17369       19.71396       38.58195
N         81.56846       18.21304       41.00192
C         82.11884       17.33260       42.02265
C         81.04987       16.82606       42.95851
O         79.90956       17.24848       42.84140
H         80.95478       17.76957       40.30254
H         82.87044       17.85406       42.64775
H         82.61473       16.48572       41.50231
N         81.32770       15.95791       43.97544
C         82.60914       15.28884       44.20397
C         83.42295       15.96676       45.31108
O         84.48525       15.46438       45.64545
C         82.31644       13.81902       44.61513
C         81.50706       13.02213       43.61383
N         81.06221       11.78637       43.94567
O         81.23460       13.48517       42.51608
H         80.55963       15.74328       44.63278
H         83.23415       15.28714       43.28663
H         81.73494       13.84594       45.56329
H         83.26254       13.26878       44.81001
H         81.26197       11.38717       44.87497
H         80.49571       11.23479       43.28375
N         82.97509       17.09274       45.94177
C         83.61040       17.69502       47.10745
C         84.96829       18.36965       46.93194
O         85.42622       18.91861       47.92440
H         82.07341       17.49985       45.66095
H         83.69999       16.91972       47.90054
H         82.92046       18.47720       47.49150
N         85.69173       18.37868       45.77236
C         87.04884       18.94669       45.71450
C         87.04575       20.44189       45.44360
O         86.33515       20.88470       44.55707
C         87.94295       18.24760       44.67040
C         88.08870       16.75300       44.95834
O         87.44257       18.43925       43.37490
H         85.32615       17.87688       44.95114
H         87.56916       18.75245       46.68039
H         88.95495       18.71569       44.75912
H         88.22217       18.42491       42.75996
H         88.80170       16.30471       44.23596
H         88.48323       16.59701       45.98538
H         87.11194       16.23612       44.86300
N         87.86949       21.27283       46.14644
C         87.94696       22.71691       45.91967
C         88.61831       23.03452       44.57794
O         89.77405       22.68501       44.38602
C         88.69987       23.42907       47.09541
C         88.81281       24.96183       46.84248
C         87.96866       23.15406       48.42820
C         89.54199       25.73011       47.94929
H         88.46083       20.85524       46.88020
H         86.91437       23.12056       45.93416
H         89.73038       23.01466       47.16809
H         87.80235       25.40706       46.71193
H         89.39258       25.12872       45.91008
H         86.93894       23.57024       48.40006
H         87.90267       22.06963       48.64321
H         88.51457       23.59420       49.28551
H         89.66178       26.79242       47.65425
H         88.96171       25.72429       48.89371
H         90.54946       25.29798       48.12322
N         87.95552       23.77761       43.64429
C         88.52416       24.29837       42.40414
C         88.56079       25.83028       42.42598
O         89.03603       26.39997       41.45238
C         87.68016       23.81817       41.21180
C         87.72013       22.32527       41.06719
O         88.73098       21.76756       40.67012
O         86.64770       21.59642       41.41709
H         86.98984       24.04394       43.83784
H         89.57216       23.95056       42.27079
H         88.02129       24.26377       40.25213
H         86.63448       24.15709       41.37047
N         88.14562       26.56256       43.50975
C         88.34174       28.00500       43.63185
C         87.04036       28.70894       44.05558
O         87.04690       29.38866       45.07539
C         89.46981       28.17376       44.68018
C         90.04882       29.54132       44.96552
C         89.73174       30.70802       44.24322
C         90.97145       29.62619       46.02379
C         90.33130       31.92857       44.58555
C         91.55823       30.84437       46.36571
C         91.23982       31.99615       45.64678
H         87.77800       26.08489       44.34210
H         88.68796       28.43297       42.66620
H         90.32779       27.53500       44.37202
H         89.07279       27.76968       45.63457
H         89.03614       30.68506       43.41614
H         91.23101       28.74110       46.59302
H         90.09364       32.82555       44.02887
H         92.26020       30.89173       47.18876
H         91.69965       32.93925       45.91313
N         85.87687       28.61395       43.33795
C         84.63103       29.29811       43.67827
C         84.16772       29.06714       45.10026
O         83.73591       30.00705       45.75090
C         83.60099       28.67039       42.72928
C         84.43911       28.36708       41.51413
C         85.71399       27.81038       42.14322
H         84.74269       30.38597       43.46608
H         83.26360       27.68363       43.12327
H         82.70027       29.29885       42.55481
H         83.95810       27.69977       40.76787
H         84.68270       29.33947       41.03000
H         85.58898       26.74803       42.45389
H         86.54680       27.91678       41.41928
N         84.20632       27.80966       45.62341
C         83.65596       27.45918       46.92464
C         84.27899       28.31617       48.00232
O         83.55995       29.07174       48.64229
C         83.80551       25.95167       47.27850
C         83.24372       24.98603       46.21154
C         84.21888       24.59189       45.14039
O         83.80163       23.77358       44.15690
O         85.38734       24.93142       45.19933
H         84.62174       27.08801       45.03626
H         82.56299       27.66925       46.88205
H         83.19954       25.80718       48.19931
H         84.84743       25.65967       47.53786
H         82.32051       25.41084       45.76538
H         82.98665       24.02363       46.70092
N         85.62095       28.27546       48.22969
C         86.29091       29.13747       49.18089
H         87.07524       29.71733       48.65020
H         85.59646       29.86107       49.65853
H         86.76552       28.52237       49.97188
H         86.20499       27.61871       47.68989
Ca        85.17312       22.61596       42.79669
O         81.77386       22.89304       42.71501
H         81.42710       23.55644       42.06836
H         81.03398       22.75111       43.35611
O         85.18415       19.16463       41.82664
H         85.01828       19.16465       42.80295
H         84.94870       18.24988       41.53222
O         83.07862       20.68648       44.93893
H         82.36219       20.00648       45.00662
H         83.33101       20.87676       45.87740

Ca 1.0



