%chk=apoCaM-CA-Ng.loop2.water3.frame1220.chk
%nprocshared=20
%mem=10GB
%nosave
#b3lyp/svp scf=(tight,noincore,xqc) Test 
#IOP(5/87=12) Density=Current Pop=(MK,readradii) iop(6/33=2) iop(6/42=6)

apoCaM-CA-Ng.loop2.water3.frame1220 

   -2  1 
C         19.23333      -15.70694      119.46376
C         20.05263      -15.69473      118.19463
O         19.61449      -15.02239      117.27286
H         18.22046      -16.09861      119.23492
H         19.62940      -16.29776      120.30264
H         19.13119      -14.66295      119.82890
N         21.23790      -16.35504      118.00945
C         21.93539      -17.19590      118.97843
C         22.10815      -18.62830      118.48701
O         21.66183      -18.96059      117.39984
C         23.25082      -16.51384      119.40633
C         24.33253      -16.22704      118.39006
O         25.33042      -15.65299      118.79586
O         24.29113      -16.54508      117.07716
H         21.69616      -16.21973      117.10033
H         21.35574      -17.29671      119.90712
H         23.71762      -17.11057      120.21726
H         22.96848      -15.53487      119.85324
N         22.69880      -19.55388      119.30158
C         22.83962      -20.98270      119.02478
C         23.81732      -21.34948      117.90449
O         24.04867      -22.53761      117.74387
C         21.46303      -21.63388      118.81671
H         23.02354      -19.24233      120.22884
H         23.26880      -21.44217      119.94431
H         21.56301      -22.73748      118.74448
H         20.80567      -21.40565      119.68370
H         20.97101      -21.27219      117.89161
N         24.46969      -20.41967      117.13821
C         25.48748      -20.76970      116.12814
C         26.18395      -19.52368      115.55680
O         25.82506      -18.41217      115.90573
C         24.91216      -21.67036      115.00327
C         23.76700      -21.04446      114.25991
O         22.67344      -21.58707      114.25622
O         23.94539      -19.90556      113.56572
H         24.27457      -19.43035      117.31956
H         26.28564      -21.34767      116.64409
H         24.57256      -22.63572      115.43079
H         25.71184      -21.93050      114.27895
N         27.25092      -19.64211      114.70973
C         28.02892      -18.48671      114.26898
C         27.27587      -17.52658      113.36834
O         26.15914      -17.81642      112.96090
H         27.58097      -20.57975      114.44031
H         28.92920      -18.82995      113.71583
H         28.37262      -17.94094      115.17414
N         27.84573      -16.32251      113.05078
C         27.19631      -15.30453      112.22257
C         28.13778      -14.75792      111.14863
O         29.32201      -15.06528      111.15678
C         26.77990      -14.11623      113.11382
C         25.86216      -14.52132      114.23649
N         26.23271      -14.32890      115.52381
O         24.77178      -15.01201      113.98439
H         28.75690      -16.09064      113.47631
H         26.29092      -15.72866      111.73404
H         26.25827      -13.34393      112.50925
H         27.69838      -13.65201      113.53712
H         27.14771      -13.91760      115.75839
H         25.60204      -14.58392      116.29359
N         27.65941      -13.88276      110.21424
C         28.48028      -13.14943      109.25669
C         29.32057      -14.05604      108.38328
O         28.75411      -14.95588      107.78049
H         26.64668      -13.68713      110.20173
H         29.09883      -12.41968      109.80996
H         27.80588      -12.56143      108.59759
N         30.67586      -13.91384      108.23887
C         31.48231      -12.84419      108.83895
C         31.22699      -11.46916      108.20373
O         31.76743      -10.49834      108.71601
C         32.99915      -13.15400      108.71089
C         33.39606      -14.42363      109.47393
O         33.34657      -13.27885      107.35426
H         31.15747      -14.62181      107.66274
H         31.25703      -12.79471      109.92660
H         33.56409      -12.30584      109.16658
H         34.32921      -13.15065      107.29300
H         33.14833      -14.31321      110.55110
H         32.87753      -15.31848      109.07363
H         34.49160      -14.58524      109.38494
N         30.48243      -11.31012      107.06733
C         30.29815      -10.02286      106.38045
C         28.80940       -9.66963      106.26891
O         27.99468      -10.56491      106.44481
C         30.98943      -10.05463      104.97165
C         30.67140      -11.35627      104.18454
C         32.50653       -9.84971      105.13536
C         31.16239      -11.34751      102.73608
H         30.05071      -12.14071      106.64151
H         30.77233       -9.22809      106.96869
H         30.62485       -9.20174      104.36938
H         29.57129      -11.50688      104.15854
H         31.13794      -12.22909      104.69189
H         33.01437       -9.77584      104.15313
H         32.69933       -8.88690      105.65737
H         32.96185      -10.67307      105.72343
H         30.88710      -12.30956      102.25356
H         30.68363      -10.51883      102.17428
H         32.26464      -11.25056      102.67431
N         28.33183       -8.41425      105.96114
C         29.11730       -7.17899      105.84370
C         28.27571       -6.06215      105.21821
O         27.22127       -5.73394      105.74489
C         29.60190       -6.68121      107.23560
C         30.56460       -5.51533      107.16456
O         30.94343       -5.06121      106.09570
O         31.03958       -4.98400      108.30638
H         27.31118       -8.33429      105.82564
H         29.99631       -7.35821      105.19985
H         30.12245       -7.46655      107.80238
H         28.72095       -6.38850      107.84597
N         28.73578       -5.38592      104.12813
C         28.08527       -4.19842      103.57890
C         27.04272       -4.59238      102.53651
O         27.40375       -5.34765      101.64358
C         29.15898       -3.31428      102.89477
C         28.60813       -1.98951      102.41798
C         28.20479       -1.82527      101.08220
C         28.49639       -0.90398      103.30616
C         27.69137       -0.60000      100.64494
C         27.99126        0.32298      102.86151
C         27.58637        0.47360      101.53274
H         29.66342       -5.64606      103.75797
H         27.67644       -3.58228      104.40669
H         29.61039       -3.86692      102.04147
H         29.99365       -3.10634      103.60103
H         28.27638       -2.64868      100.38326
H         28.80647       -1.00507      104.33884
H         27.37343       -0.48333       99.61704
H         27.91312        1.15792      103.54640
H         27.19182        1.42204      101.19063
N         25.77789       -4.05803      102.49037
C         25.27209       -3.02378      103.37723
C         24.86328       -3.56087      104.73085
O         25.39272       -3.10806      105.73539
C         24.06571       -2.42509      102.62000
C         24.40091       -2.75552      101.17430
C         24.92227       -4.17804      101.32890
H         26.03998       -2.22592      103.45203
H         23.13164       -2.98613      102.83412
H         23.86372       -1.35578      102.84335
H         23.54881       -2.64948      100.46981
H         25.23722       -2.10390      100.83920
H         24.07537       -4.85731      101.57613
H         25.43216       -4.54707      100.41352
N         23.86863       -4.49345      104.82440
C         23.29961       -4.93251      106.08661
C         22.01910       -4.14177      106.31827
O         21.10490       -4.26651      105.51477
C         22.97219       -6.44047      106.04153
C         24.21291       -7.31629      105.83343
C         23.83105       -8.76888      105.77852
O         24.31722       -9.63073      106.69169
O         23.08321       -9.17661      104.90321
H         23.40356       -4.81569      103.96303
H         24.02215       -4.76156      106.90898
H         22.25097       -6.63188      105.21425
H         22.48579       -6.73280      106.99883
H         24.91925       -7.15148      106.67504
H         24.72066       -7.04815      104.88215
N         21.85469       -3.28256      107.36427
C         22.87111       -3.01531      108.35807
H         23.77728       -2.59587      107.87202
H         22.49595       -2.26904      109.08964
H         23.12716       -3.94661      108.90533
H         20.95987       -2.77549      107.44930
Ca        23.00729      -17.57823      115.52275
O         20.62994      -18.76907      114.32869
H         19.79892      -18.30765      114.05303
H         20.51694      -19.70026      114.01365
O         21.13169      -15.34259      114.60484
H         20.32997      -15.89590      114.78193
H         20.96202      -14.93656      113.71872
O         22.69415      -16.88741      112.27808
H         21.73120      -16.88677      112.04699
H         23.05535      -16.07731      111.83784

Ca 1.0



