%chk=apoCaM-CA-Ng.loop1.water3.frame1425.chk
%nprocshared=20
%mem=10GB
%nosave
#b3lyp/svp scf=(tight,noincore,xqc) Test 
#IOP(5/87=12) Density=Current Pop=(MK,readradii) iop(6/33=2) iop(6/42=6)

apoCaM-CA-Ng.loop1.water3.frame1425 

   0  1 
C         80.45626       98.68910       23.87089
C         81.40567       99.06426       22.77682
O         81.05160       98.92037       21.61477
H         79.50171       98.30911       23.44608
H         80.90999       97.88721       24.49081
H         80.24448       99.57457       24.50323
N         82.65380       99.52671       23.08066
C         83.65061       99.82803       22.05998
C         84.77503       98.81835       22.13229
O         85.94491       99.17703       22.16580
C         84.10551      101.30241       22.11280
C         84.81081      101.72591       23.37781
O         85.19445      102.87910       23.48600
O         85.04163      100.86089       24.38463
H         82.91619       99.61072       24.07319
H         83.20511       99.68681       21.05807
H         83.20960      101.94560       21.97597
H         84.79124      101.48909       21.25647
N         84.45646       97.49661       22.11459
C         85.43812       96.42698       22.02353
C         86.21291       96.58165       20.71850
O         87.43085       96.64828       20.79533
C         84.76869       95.03599       22.19654
C         84.15121       94.92170       23.60631
C         83.37926       93.61663       23.82045
C         82.80210       93.57963       25.24574
N         82.00209       92.37693       25.46705
H         83.45644       97.24544       22.12077
H         86.16008       96.51566       22.86774
H         85.53273       94.23638       22.08060
H         83.98411       94.85740       21.43735
H         83.43736       95.75437       23.77779
H         84.96483       95.00131       24.36064
H         84.05068       92.74464       23.66545
H         82.54574       93.56519       23.08556
H         82.15973       94.47375       25.41300
H         83.63627       93.60869       25.98221
H         82.58692       91.52211       25.32530
H         81.64286       92.38467       26.44940
H         81.18725       92.36476       24.81141
N         85.63145       96.75136       19.48932
C         84.19895       96.73330       19.20224
C         83.66541       98.11335       18.82403
O         84.42859       99.06523       18.72859
C         83.91048       95.69622       18.11271
C         84.60421       96.03702       16.83044
O         84.40170       97.24343       16.27079
O         85.30796       95.21232       16.27592
H         86.26534       96.93815       18.69563
H         83.61678       96.43417       20.07880
H         82.81863       95.66253       17.91345
H         84.21644       94.68317       18.45619
N         82.32257       98.28668       18.65562
C         81.68130       99.57038       18.41395
C         81.88364      100.13543       17.02653
O         82.54912       99.53696       16.19720
H         81.70013       97.47717       18.80144
H         82.01358      100.30592       19.17504
H         80.58444       99.43415       18.53112
N         81.25551      101.31010       16.71899
C         81.27803      101.95599       15.40068
C         80.00870      102.81633       15.20216
O         79.29898      103.05064       16.16811
C         82.54206      102.84761       15.29711
C         83.81841      102.06205       15.32957
O         84.71345      102.26970       16.31361
O         84.06232      101.25189       14.44943
H         80.69187      101.73297       17.46982
H         81.25885      101.16545       14.62261
H         82.53111      103.57796       16.13557
H         82.56900      103.43638       14.36890
N         79.61734      103.33593       13.99382
C         80.25597      103.08845       12.71385
C         80.10871      101.65565       12.26976
O         79.26652      100.94183       12.79089
H         78.77828      103.93807       13.98022
H         81.31297      103.38959       12.73436
H         79.78339      103.71631       11.92713
N         80.91050      101.17448       11.28589
C         80.84622       99.80910       10.76461
C         81.08149       98.79096       11.87949
O         82.06041       98.91574       12.60063
C         81.88669       99.62073        9.63116
C         81.60702      100.54712        8.43442
O         81.84364       98.29088        9.18525
H         81.61649      101.82240       10.90386
H         79.84168       99.63158       10.32013
H         82.89819       99.84579       10.04344
H         82.68502       98.13330        8.68186
H         80.60144      100.33739        8.01191
H         81.65691      101.61888        8.71229
H         82.36603      100.37609        7.64213
N         80.21768       97.74148       12.05482
C         80.33397       96.73115       13.10895
C         81.69640       95.98659       12.95651
O         82.39495       95.98061       14.14898
C         80.00743       97.36758       14.51406
C         78.62676       98.08666       14.49883
C         80.01562       96.36498       15.69638
C         77.41302       97.18750       14.22807
H         79.42769       97.64349       11.39954
H         79.54039       95.97268       12.94442
H         80.77000       98.14460       14.73522
H         78.62815       98.87045       13.72596
H         78.47337       98.59368       15.47670
H         79.31569       95.52481       15.51873
H         81.00284       95.92904       15.91957
H         79.72216       96.88888       16.63182
H         76.49110       97.80482       14.24842
H         77.47352       96.71593       13.22666
H         77.30843       96.40107       15.00173
N         81.51012       94.59767       12.49962
C         82.78627       93.84084       12.41400
C         83.00065       93.28142       11.01498
O         83.17056       92.08512       10.82820
C         82.86737       92.77132       13.54066
C         81.73331       91.74399       13.49895
O         82.83324       93.39391       14.79803
H         81.00451       94.61846       11.58352
H         83.65828       94.52114       12.56725
H         83.82713       92.20871       13.43736
H         83.76220       93.66893       15.00846
H         81.86502       91.02174       14.33312
H         80.75049       92.24529       13.61791
H         81.73248       91.16754       12.55416
N         83.07017       94.15587        9.97957
C         83.39063       93.79086        8.61016
C         84.77199       94.34739        8.36622
O         84.92897       95.38829        7.74524
C         82.29623       94.30337        7.64605
C         80.96346       93.59121        7.91670
O         82.13093       95.68999        7.78564
H         82.96486       95.16152       10.18735
H         83.45483       92.68847        8.46727
H         82.62188       94.06409        6.60712
H         81.62053       96.00100        6.99297
H         80.60520       93.79743        8.94790
H         80.19239       93.94017        7.19820
H         81.08322       92.49343        7.79158
N         85.82122       93.70619        8.95994
C         87.18607       94.20197        9.08734
C         87.23335       95.33822       10.08583
O         86.20253       95.91838       10.39431
C         87.84196       94.59691        7.75102
C         87.87109       93.44190        6.74501
C         88.49422       93.90754        5.42393
C         88.55731       92.76668        4.40294
N         89.12634       93.23355        3.13902
H         85.62810       92.80742        9.42979
H         87.77595       93.37562        9.54592
H         88.88644       94.92596        7.94609
H         87.30351       95.45990        7.30791
H         86.83576       93.08731        6.54846
H         88.46420       92.60228        7.16921
H         89.52342       94.28551        5.61090
H         87.88046       94.73642        5.00630
H         87.53319       92.37213        4.21924
H         89.18566       91.94264        4.80843
H         88.52477       93.98640        2.73181
H         90.09366       93.60085        3.29244
H         89.16949       92.43460        2.46628
N         88.40622       95.65023       10.70519
C         88.50211       96.67675       11.73649
C         87.51847       96.41580       12.87173
O         86.73242       97.31201       13.13210
C         89.93859       96.83735       12.27454
C         90.91146       97.32506       11.19365
C         92.28235       97.51985       11.77256
O         92.80539       98.62242       11.75572
O         92.94383       96.47691       12.31047
H         89.24669       95.10654       10.45816
H         88.22803       97.65717       11.28256
H         90.31565       95.88873       12.69569
H         89.92135       97.59838       13.08723
H         90.54137       98.28823       10.77794
H         90.98127       96.58911       10.36645
N         87.42801       95.25549       13.58588
C         88.24061       94.07417       13.39959
H         89.29676       94.27679       13.64674
H         87.89581       93.27901       14.09571
H         88.13837       93.68521       12.36756
H         86.69576       95.19756       14.30507
Ca        84.14654       97.37426       14.08014
O         84.41032       97.96114       11.27701
H         85.04892       98.41751       10.67490
H         83.90514       97.34451       10.69119
O         86.51368      100.28326       12.65554
H         86.56774      101.12461       13.17433
H         87.43757       99.92733       12.66655
O         86.41382       99.54693       15.83304
H         86.74689      100.46696       15.68337
H         86.16694       99.52883       16.79102

Ca 1.0



