%chk=apoCaM-CA-Ng.loop2.water4.frame592.chk
%nprocshared=20
%mem=10GB
%nosave
#b3lyp/svp scf=(tight,noincore,xqc) Test 
#IOP(5/87=12) Density=Current Pop=(MK,readradii) iop(6/33=2) iop(6/42=6)

apoCaM-CA-Ng.loop2.water4.frame592 

   -2  1 
C         43.86108      106.42103      102.46973
C         43.12000      107.56261      103.09875
O         42.33938      107.33401      104.01236
H         44.95179      106.56245      102.61348
H         43.55938      105.45497      102.92966
H         43.63478      106.37936      101.38320
N         43.28989      108.83119      102.62953
C         42.55943      109.96562      103.17983
C         43.11015      110.32035      104.55390
O         44.19364      110.87870      104.63371
C         42.64484      111.16665      102.21435
C         41.84096      112.34226      102.69127
O         42.38649      113.41367      102.90171
O         40.51159      112.22408      102.87131
H         43.91159      108.97281      101.81782
H         41.48634      109.67420      103.24668
H         42.25043      110.85932      101.22098
H         43.70928      111.46349      102.08073
N         42.41690      110.00516      105.68258
C         42.88786      110.30440      107.03564
C         44.22579      109.63447      107.34523
O         44.40787      108.49690      106.93431
C         41.86471      109.79170      108.05866
H         41.51286      109.51963      105.57180
H         42.96104      111.40549      107.14532
H         40.87748      110.26929      107.88919
H         41.74867      108.68885      107.96982
H         42.19326      110.02441      109.09374
N         45.17392      110.19574      108.16235
C         45.02622      111.49304      108.82006
C         45.32075      112.64838      107.89016
O         45.80430      112.42991      106.78875
C         45.86127      111.58547      110.11581
C         47.36371      111.41072      110.05743
O         48.06523      111.03295      108.96686
O         47.97357      111.50033      111.11062
H         45.99255      109.61514      108.40052
H         43.97442      111.58849      109.16459
H         45.48088      110.80578      110.81307
H         45.65850      112.56682      110.59481
N         45.03467      113.92789      108.27653
C         45.31737      115.08212      107.43837
C         44.55357      115.04665      106.12974
O         43.71711      114.17133      105.95297
H         44.61290      114.09557      109.20334
H         46.40358      115.09868      107.23344
H         45.04598      116.01506      107.98161
N         44.76469      115.95337      105.13283
C         45.72106      117.05786      105.17128
C         46.77485      116.93960      104.05819
O         47.65685      117.78631      104.01165
C         44.90442      118.36329      105.00922
C         45.71825      119.63414      105.01645
N         46.38423      120.03344      106.12348
O         45.75784      120.32343      104.00779
H         44.18791      115.85769      104.28173
H         46.26027      117.08540      106.13998
H         44.14616      118.43226      105.81981
H         44.35845      118.30010      104.04141
H         46.34516      119.48195      106.99207
H         46.92496      120.91165      106.11473
N         46.73553      115.96327      103.09961
C         47.61857      115.96801      101.93888
C         49.08430      115.66149      102.20130
O         49.85090      115.77476      101.25565
H         45.98749      115.25735      103.10866
H         47.53933      116.96733      101.45609
H         47.25638      115.21910      101.20162
N         49.55642      115.24798      103.41309
C         50.97539      114.96439      103.67262
C         51.21697      113.48945      103.97797
O         50.27422      112.71326      104.02872
C         51.49973      115.89853      104.79427
C         51.71977      117.31433      104.24329
O         50.59233      115.91658      105.86759
H         48.88722      115.12020      104.18426
H         51.58801      115.14233      102.76160
H         52.48733      115.54009      105.15623
H         50.97120      116.50585      106.57048
H         50.78482      117.73910      103.82409
H         52.09897      117.98261      105.04499
H         52.49259      117.27978      103.44352
N         52.50130      113.03011      104.11539
C         52.86388      111.62072      104.25889
C         53.53425      111.38359      105.60102
O         54.56339      111.98990      105.86645
C         53.81604      111.18292      103.09349
C         54.32989      109.72324      103.29026
C         53.09648      111.33438      101.73943
C         55.36144      109.26627      102.25780
H         53.27583      113.70925      104.06623
H         51.95809      110.99578      104.20541
H         54.70263      111.85630      103.09842
H         53.48424      109.01159      103.27497
H         54.83459      109.63737      104.27560
H         53.77490      111.10029      100.89461
H         52.21620      110.65741      101.69049
H         52.75274      112.37864      101.58952
H         54.92831      109.21958      101.23925
H         56.23986      109.94569      102.26201
H         55.70714      108.24280      102.52013
N         53.02700      110.45383      106.46844
C         53.64593      110.09444      107.73491
C         54.11814      108.63338      107.76261
O         54.85515      108.29934      108.68024
C         52.65101      110.33503      108.88667
C         52.06750      111.72397      108.87664
O         52.26236      112.54761      109.92217
O         51.38143      112.09875      107.93822
H         52.15161      109.98047      106.23755
H         54.54558      110.72973      107.89148
H         53.16920      110.15603      109.85313
H         51.80904      109.61292      108.80411
N         53.75926      107.70783      106.81408
C         54.33059      106.36174      106.75819
C         53.35366      105.38400      106.08016
O         53.69392      104.83102      105.04356
C         55.67823      106.48522      106.00107
C         56.60236      105.28491      105.94178
C         56.34992      104.05202      106.57819
C         57.79703      105.43874      105.21524
C         57.28077      103.00799      106.48376
C         58.71908      104.39492      105.12255
C         58.46282      103.18002      105.75777
H         53.13921      107.98156      106.04693
H         54.53118      105.99417      107.78809
H         56.26829      107.29414      106.48382
H         55.45108      106.80997      104.96081
H         55.45019      103.88722      107.15346
H         58.01543      106.37676      104.71868
H         57.08978      102.06361      106.97695
H         59.63409      104.53188      104.56012
H         59.18242      102.37405      105.68795
N         52.11937      105.10101      106.60887
C         51.14999      104.17511      106.02379
C         50.82452      104.44095      104.56338
O         50.65033      103.48056      103.82627
C         49.90116      104.36490      106.89046
C         50.51419      104.65479      108.24008
C         51.63318      105.62593      107.86789
H         51.54274      103.13899      106.14108
H         49.35870      105.28705      106.58054
H         49.19404      103.50651      106.86291
H         49.81214      105.02450      109.01654
H         50.97829      103.70748      108.60408
H         51.25849      106.65584      107.69928
H         52.39137      105.61000      108.67817
N         50.77481      105.71372      104.06453
C         50.54695      105.99769      102.64384
C         51.59693      105.26439      101.83604
O         51.25006      104.45048      100.99151
C         50.58597      107.50692      102.22854
C         49.65290      108.45628      103.01345
C         50.25590      108.92586      104.30484
O         49.52024      109.57649      105.22814
O         51.41692      108.66878      104.55046
H         50.94432      106.46952      104.72713
H         49.53231      105.62187      102.38108
H         50.24683      107.52518      101.16953
H         51.61694      107.92150      102.22290
H         48.68660      107.94035      103.17486
H         49.46905      109.38114      102.42605
N         52.91687      105.46767      102.10285
C         53.96522      104.72948      101.43781
H         54.95236      105.02057      101.85697
H         53.82255      103.64002      101.60679
H         53.95297      104.94586      100.35024
H         53.18732      106.14222      102.83507
Ca        48.20246      110.67080      106.73323
O         48.96130      108.13198      107.81317
H         48.77855      108.48931      108.71746
H         49.83636      108.52597      107.56995
O         46.79566      109.42843      104.56156
H         46.03944      109.46716      105.19105
H         47.25441      108.59521      104.82783
O         47.31389      112.72121      104.17886
H         47.76599      112.74691      103.29874
H         46.36899      112.93312      103.97603
O         49.08315      113.72665      107.12143
H         48.31872      113.98979      107.68996
H         48.81351      113.99029      106.20763

Ca 1.0



