%chk=apoCaM-CA-Ng.loop4.water6.frame843.chk
%nprocshared=20
%mem=10GB
%nosave
#b3lyp/svp scf=(tight,noincore,xqc) Test 
#IOP(5/87=12) Density=Current Pop=(MK,readradii) iop(6/33=2) iop(6/42=6)

apoCaM-CA-Ng.loop4.water6.frame843 

   -3  1 
C         70.88465      -24.03883       61.66725
C         71.28713      -25.27541       60.92053
O         72.24545      -25.92837       61.30581
H         69.84434      -24.15337       62.03933
H         71.55802      -23.85867       62.53137
H         70.93022      -23.16230       60.98688
N         70.56901      -25.66147       59.83125
C         70.84990      -26.83912       59.01994
C         70.76335      -28.10820       59.86281
O         71.66907      -28.93090       59.83784
C         72.19075      -26.66215       58.26432
C         72.46454      -27.71350       57.21820
O         73.49416      -27.65237       56.56561
O         71.58890      -28.70874       56.97482
H         69.75418      -25.08868       59.55969
H         70.04491      -26.89709       58.25265
H         73.03013      -26.65259       58.98921
H         72.17129      -25.68057       57.74123
N         69.67025      -28.31824       60.64913
C         69.45128      -29.54976       61.40683
C         69.21833      -30.69461       60.41644
O         68.34890      -30.54638       59.56996
C         68.29061      -29.39597       62.44927
C         66.92252      -28.97459       61.84632
C         68.74411      -28.42554       63.56245
C         65.77544      -29.05638       62.85624
H         68.97021      -27.56614       60.69436
H         70.35397      -29.75385       62.01433
H         68.14371      -30.38605       62.92477
H         66.64938      -29.65953       61.02188
H         66.96221      -27.94138       61.44473
H         69.69846      -28.77699       64.01222
H         68.90222      -27.40204       63.16192
H         68.01256      -28.37833       64.39196
H         65.68435      -30.09338       63.24460
H         65.91855      -28.35797       63.70408
H         64.82400      -28.78293       62.35442
N         69.96604      -31.84115       60.37341
C         70.99172      -32.22899       61.33628
C         71.82101      -33.37589       60.77930
O         71.28015      -34.44013       60.50997
C         70.33100      -32.66723       62.66408
C         71.33469      -33.06731       63.70594
O         71.33308      -34.32072       64.20003
O         72.14114      -32.25246       64.12321
H         69.77656      -32.48801       59.59063
H         71.67976      -31.37512       61.50584
H         69.64732      -33.52278       62.46477
H         69.73015      -31.84938       63.09070
N         73.16100      -33.21423       60.59953
C         74.04872      -34.25289       60.10647
C         75.12550      -34.60229       61.11456
O         76.01653      -35.36051       60.75996
H         73.58937      -32.30378       60.82978
H         74.53901      -33.86335       59.18825
H         73.50175      -35.18053       59.83609
N         75.12359      -34.08292       62.37833
C         76.18578      -34.30400       63.34928
C         75.66646      -34.99058       64.60031
O         76.23412      -36.00914       64.97255
C         76.93024      -32.97924       63.65670
C         76.09240      -31.82889       64.15937
O         76.38276      -31.24574       65.33765
O         75.20278      -31.36012       63.46844
H         74.34653      -33.47795       62.66951
H         76.97167      -34.97003       62.92564
H         77.42082      -32.63836       62.71954
H         77.73559      -33.19420       64.39431
N         74.60605      -34.50948       65.31369
C         74.20589      -35.10651       66.58084
C         75.20801      -34.79071       67.67941
O         75.13053      -35.38266       68.74530
H         74.08414      -33.69253       64.97146
H         74.08764      -36.20341       66.44330
H         73.22482      -34.69802       66.90724
N         76.12957      -33.80053       67.50299
C         77.11167      -33.34710       68.47177
C         76.47215      -32.85533       69.75962
O         77.03777      -33.06049       70.82443
C         78.23475      -34.38348       68.68218
C         78.93309      -34.72291       67.35384
C         80.10745      -35.64009       67.57104
N         80.15152      -36.86231       66.99182
O         81.03942      -35.26849       68.26900
H         76.12662      -33.27506       66.62435
H         77.59645      -32.44563       68.03130
H         77.82664      -35.31038       69.14034
H         78.98769      -33.94663       69.37476
H         79.30675      -33.79132       66.87564
H         78.20153      -35.19405       66.66363
H         79.38024      -37.19543       66.39550
H         80.96400      -37.47936       67.13941
N         75.30170      -32.15179       69.72350
C         74.71812      -31.50983       70.90162
C         74.48393      -30.01648       70.68106
O         74.14910      -29.35094       71.65404
C         73.40113      -32.20746       71.34360
C         72.30056      -32.14163       70.27182
C         73.65908      -33.66566       71.74623
H         74.80855      -32.07434       68.82381
H         75.42932      -31.58492       71.75369
H         73.02328      -31.68336       72.25049
H         71.36818      -32.60542       70.65901
H         72.06995      -31.08738       70.01130
H         72.60277      -32.68348       69.35150
H         74.02046      -34.25898       70.88196
H         74.41894      -33.71145       72.55551
H         72.72399      -34.12940       72.12677
N         74.58995      -29.41930       69.45367
C         74.32403      -28.00412       69.22322
C         75.52468      -27.34683       68.55685
O         76.44199      -28.04991       68.14332
C         73.04612      -27.89719       68.36162
C         72.55587      -26.48701       68.15938
N         72.42782      -25.96973       66.91531
O         72.25333      -25.80932       69.13067
H         74.82574      -29.97762       68.62204
H         74.14457      -27.49123       70.19365
H         72.23105      -28.45525       68.87277
H         73.22784      -28.39148       67.38158
H         72.66691      -26.52716       66.08231
H         72.08172      -25.00796       66.78300
N         75.61728      -25.99025       68.46335
C         76.77235      -25.32722       67.85691
C         76.83338      -23.84563       68.24530
O         75.93842      -23.36637       68.92851
C         76.69577      -25.49342       66.31333
C         78.02997      -25.36573       65.61902
C         78.32542      -24.27134       64.79087
C         78.98678      -26.38368       65.77437
C         79.56174      -24.19074       64.14016
C         80.21436      -26.31063       65.11128
C         80.50895      -25.21435       64.29541
O         81.70030      -25.15785       63.66626
H         74.87062      -25.43181       68.90174
H         77.68482      -25.81462       68.26858
H         75.94737      -24.76968       65.92015
H         76.31903      -26.50202       66.03788
H         77.60796      -23.47693       64.65983
H         78.77232      -27.24574       66.39415
H         79.78074      -23.33581       63.51290
H         80.93549      -27.11000       65.22927
H         81.94641      -24.41811       63.09297
N         77.88147      -23.06026       67.87649
C         77.98575      -21.64029       68.20051
C         78.20716      -20.84268       66.91853
O         79.30686      -20.33866       66.72798
C         79.15329      -21.42490       69.19245
C         78.90123      -22.09563       70.54923
C         80.01715      -21.78992       71.50736
O         81.15823      -22.14651       71.25985
O         79.76237      -21.11859       72.64698
H         78.66903      -23.48756       67.36730
H         77.07733      -21.24856       68.70493
H         79.26140      -20.33118       69.37246
H         80.10245      -21.80683       68.75358
H         78.81652      -23.19645       70.42886
H         77.94801      -21.71044       70.97329
N         77.25228      -20.65999       65.95941
C         75.85371      -21.08236       66.02561
C         75.11172      -20.30548       67.09720
O         75.18666      -19.08390       67.10379
C         75.14441      -20.79708       64.68180
C         75.71546      -21.63329       63.52878
C         75.01131      -21.32093       62.24371
O         75.06221      -20.19666       61.77069
O         74.33427      -22.28719       61.59736
H         77.54957      -20.13747       65.12000
H         75.78347      -22.17589       66.20692
H         75.22510      -19.71288       64.44130
H         74.06478      -21.05215       64.78161
H         75.58015      -22.71085       63.76457
H         76.79807      -21.43308       63.38791
N         74.32481      -20.95315       68.00080
C         73.55633      -20.27659       69.02638
H         72.47715      -20.49122       68.87564
H         73.86092      -20.65442       70.02433
H         73.69835      -19.17565       69.00839
H         74.23226      -21.97611       67.94449
Ca        73.32096      -21.85112       59.62762
O         72.49414      -21.81553       56.67180
H         71.93958      -22.56660       57.00227
H         73.10658      -22.22984       56.01343
O         73.46067      -18.71066       59.49848
H         72.64755      -18.83964       58.94837
H         73.11971      -18.42631       60.38351
O         74.81278      -24.65685       59.60511
H         74.44576      -24.69976       60.52265
H         75.28620      -25.51826       59.48910
O         75.83027      -23.10347       57.06261
H         76.35446      -23.84136       57.46377
H         76.50821      -22.52991       56.62494
O         75.73159      -19.90616       57.63192
H         76.68993      -19.65911       57.66405
H         75.50043      -19.87837       56.66950
O         77.09831      -22.07844       59.83386
H         77.54232      -22.46491       60.63006
H         77.59141      -21.23812       59.65793

Ca 1.0



