%chk=apoCaM-CA-Ng.loop4.water2.frame254.chk
%nprocshared=20
%mem=10GB
%nosave
#b3lyp/svp scf=(tight,noincore,xqc) Test 
#IOP(5/87=12) Density=Current Pop=(MK,readradii) iop(6/33=2) iop(6/42=6)

apoCaM-CA-Ng.loop4.water2.frame254 

   -3  1 
C         23.73793       37.87835        7.29718
C         22.94369       38.82242        8.14553
O         23.19466       38.89050        9.33858
H         24.48263       37.33118        7.91591
H         23.06147       37.14410        6.81507
H         24.28228       38.45215        6.51803
N         21.99013       39.62116        7.58272
C         21.22921       40.61803        8.32805
C         22.15586       41.59039        9.01925
O         22.15345       41.67566       10.23615
C         20.08176       40.01454        9.18577
C         20.27392       38.73681        9.97864
O         21.08705       38.58662       11.04631
O         19.58501       37.77632        9.67006
H         21.84623       39.56937        6.56266
H         20.67862       41.25980        7.60127
H         19.28650       39.76397        8.44505
H         19.64747       40.80584        9.83379
N         22.97685       42.36463        8.24400
C         23.92170       43.37927        8.70461
C         23.22063       44.67007        9.14660
O         23.47795       45.68235        8.50626
C         25.00225       42.78376        9.64773
C         25.95726       43.90244       10.12767
C         25.76596       41.68115        8.87558
C         27.15483       43.39955       10.92505
H         22.94506       42.21156        7.22359
H         24.49648       43.70279        7.80335
H         24.53414       42.32805       10.54389
H         25.37571       44.59103       10.77982
H         26.34986       44.48239        9.26506
H         26.27717       42.10892        7.98630
H         26.52938       41.18717        9.50562
H         25.07454       40.88373        8.53455
H         27.85578       42.82710       10.28359
H         27.69490       44.27418       11.33031
H         26.83212       42.75321       11.75295
N         22.30080       44.74327       10.15287
C         21.56294       45.97796       10.41058
C         22.44664       47.04068       11.08066
O         22.62443       48.08208       10.46473
C         20.21329       45.71095       11.12638
C         19.33917       44.77574       10.33323
O         18.93517       43.61015       10.87532
O         18.98485       45.06840        9.20242
H         22.03953       43.90481       10.67792
H         21.24220       46.39212        9.42526
H         19.67179       46.67354       11.25441
H         20.33150       45.25190       12.11424
N         23.04810       46.90651       12.30510
C         22.93192       45.71909       13.13245
C         23.55031       45.82509       14.51145
O         24.03881       46.88924       14.86330
H         23.61134       47.70116       12.64484
H         23.36593       44.86666       12.57985
H         21.87784       45.59725       13.35886
N         23.53997       44.78362       15.40674
C         23.12627       43.39673       15.15723
C         24.07237       42.78543       14.14076
O         23.63935       42.44314       13.04933
C         21.62704       43.24450       14.78353
C         21.20427       41.79816       14.76602
O         21.30152       41.05048       15.88169
O         20.75927       41.29875       13.74411
H         23.92090       44.97596       16.34651
H         23.23589       42.83003       16.10696
H         21.40541       43.64855       13.78365
H         21.00479       43.77479       15.53463
N         25.40357       42.62993       14.38805
C         26.07335       42.82659       15.66197
C         27.11964       43.91107       15.62102
O         27.23791       44.63325       14.64030
H         25.98556       42.27961       13.62654
H         26.56706       41.86649       15.92565
H         25.37553       43.06974       16.48362
N         27.91455       44.07889       16.71463
C         28.90276       45.14515       16.85817
C         30.03510       45.04877       15.84511
O         30.76867       46.01684       15.71155
C         29.57976       45.07692       18.25067
C         28.62978       45.17276       19.45485
C         29.40678       44.93346       20.72680
N         29.14444       43.85498       21.50420
O         30.29583       45.70784       21.04811
H         27.77694       43.41566       17.49081
H         28.37876       46.11968       16.73833
H         30.33627       45.88885       18.33903
H         30.11246       44.10331       18.31000
H         27.83496       44.40571       19.38570
H         28.13755       46.16766       19.48520
H         28.41190       43.17787       21.24470
H         29.68790       43.68359       22.36306
N         30.32488       43.87311       15.21459
C         31.53050       43.67717       14.40842
C         32.49312       42.71527       15.09432
O         33.57981       42.52236       14.56031
C         31.18331       43.20521       12.97270
C         30.38208       44.28244       12.23760
C         30.42484       41.87003       12.95671
H         29.72261       43.05739       15.38254
H         32.09160       44.63285       14.31517
H         32.13288       43.06110       12.41031
H         30.96425       45.22675       12.18814
H         30.16615       43.95639       11.19785
H         29.42924       44.48419       12.76820
H         30.23947       41.54443       11.91134
H         31.01365       41.07743       13.46489
H         29.44642       41.97023       13.46199
N         32.19649       42.10253       16.28006
C         33.12906       41.24671       16.99562
C         32.62824       39.81015       17.09649
O         33.38321       38.92547       16.71949
C         33.54327       41.87881       18.35544
C         32.48815       42.22576       19.38718
N         32.86815       42.78936       20.55743
O         31.30409       42.02495       19.18758
H         31.28373       42.26216       16.72482
H         34.09434       41.18409       16.44209
H         34.06837       42.83160       18.12280
H         34.28010       41.19913       18.83678
H         33.86193       42.97878       20.75305
H         32.16692       43.03955       21.27074
N         31.40091       39.48410       17.60413
C         30.99447       38.10382       17.85913
C         29.69534       37.72858       17.16207
O         28.83086       38.57421       16.98383
C         30.80273       37.92313       19.37952
C         32.06539       38.21090       20.15839
C         33.21311       37.42407       19.96480
C         32.10472       39.25980       21.09369
C         34.37865       37.68230       20.69109
C         33.27290       39.51758       21.81809
C         34.41223       38.73073       21.62122
O         35.52918       38.98788       22.33125
H         30.74717       40.22430       17.87851
H         31.77650       37.38895       17.52648
H         30.49314       36.88090       19.60385
H         29.98483       38.60039       19.71513
H         33.20525       36.60675       19.25531
H         31.23385       39.88074       21.26354
H         35.25345       37.06480       20.53148
H         33.29151       40.32887       22.53519
H         36.33564       38.46229       22.22935
N         29.45831       36.41180       16.86866
C         28.18025       35.85460       16.41979
C         27.72279       36.30618       15.03535
O         26.63494       35.90937       14.63951
C         27.08497       36.06255       17.49282
C         27.48214       35.40832       18.82765
C         26.38389       35.52858       19.84239
O         25.87552       34.52544       20.31768
O         25.96318       36.74273       20.24452
H         30.21232       35.73272       17.05336
H         28.30372       34.75146       16.32738
H         26.14765       35.57485       17.14456
H         26.87411       37.14226       17.64153
H         28.39238       35.89006       19.23713
H         27.70452       34.33125       18.65568
N         28.51349       37.04314       14.20486
C         28.13225       37.39765       12.83731
C         29.00428       36.68529       11.81093
O         28.76316       36.87820       10.62601
C         28.27060       38.91783       12.65135
C         27.21830       39.73740       13.40939
C         25.86629       39.68051       12.74342
O         25.75960       39.99851       11.57163
O         24.75597       39.34198       13.42062
H         29.45223       37.32528       14.52165
H         27.08771       37.09019       12.60826
H         28.20399       39.19982       11.57673
H         29.28667       39.20570       12.99691
H         27.54821       40.78865       13.35633
H         27.16760       39.44713       14.48065
N         30.01629       35.84013       12.15996
C         30.82050       35.17008       11.16054
H         31.59028       34.53870       11.65192
H         30.17680       34.52094       10.52895
H         31.33086       35.92003       10.51891
H         30.23553       35.65533       13.14836
Ca        22.82081       39.43981       12.22722
O         23.17831       36.41553       11.37791
H         23.06723       35.55272       11.85005
H         22.57234       36.35020       10.59744
O         22.07829       37.83144       14.76223
H         21.09761       37.91952       14.65719
H         22.28941       36.93975       14.38690

Ca 1.0



