%chk=apoCaM-CA-Ng.loop4.water5.frame859.chk
%nprocshared=20
%mem=10GB
%nosave
#b3lyp/svp scf=(tight,noincore,xqc) Test 
#IOP(5/87=12) Density=Current Pop=(MK,readradii) iop(6/33=2) iop(6/42=6)

apoCaM-CA-Ng.loop4.water5.frame859 

   -3  1 
C         69.66398       85.08729       66.90556
C         69.66535       86.05727       65.76431
O         70.67224       86.16157       65.07875
H         68.68611       85.07290       67.43023
H         69.87670       84.06543       66.52623
H         70.43961       85.37807       67.63021
N         68.54583       86.78320       65.48404
C         68.40652       87.68633       64.34857
C         68.63721       86.90334       63.06720
O         69.44718       87.29984       62.23945
C         69.33739       88.91629       64.51068
C         69.11705       90.00713       63.49174
O         69.87465       91.11885       63.54597
O         68.25832       89.91022       62.62863
H         67.71439       86.65327       66.08058
H         67.35513       88.05123       64.34798
H         70.39983       88.59616       64.46011
H         69.16053       89.36420       65.51183
N         68.00033       85.71013       62.89008
C         68.29009       84.83937       61.75734
C         67.65692       85.36401       60.47052
O         66.69527       86.11383       60.56036
C         67.95102       83.33582       62.05666
C         66.52409       83.01642       62.60130
C         68.96734       82.78524       63.07523
C         65.35863       83.41268       61.70430
H         67.38947       85.37783       63.64726
H         69.38832       84.89270       61.62381
H         68.10284       82.75754       61.11959
H         66.36337       83.47078       63.60137
H         66.45514       81.91507       62.74327
H         68.79593       81.70144       63.25152
H         70.00344       82.89931       62.69118
H         68.88676       83.31899       64.04649
H         64.41218       83.05659       62.16627
H         65.27670       84.50977       61.62230
H         65.46220       82.95036       60.70128
N         68.14103       85.08542       59.21860
C         69.37663       84.36802       58.91101
C         70.31959       85.34885       58.22026
O         70.78225       85.09731       57.11549
C         69.05063       83.12679       58.05463
C         70.27735       82.31293       57.74006
O         70.60630       82.12103       56.58009
O         71.01713       81.78980       58.73650
H         67.62972       85.48283       58.41374
H         69.88354       84.01091       59.82296
H         68.55481       83.44814       57.11135
H         68.34245       82.47735       58.61158
N         70.59024       86.54488       58.81286
C         71.38061       87.57956       58.17468
C         72.86157       87.30665       58.25649
O         73.52296       87.22576       57.23168
H         70.13486       86.77299       59.70893
H         71.21392       88.53937       58.71248
H         71.03305       87.73148       57.12916
N         73.45844       87.27075       59.47913
C         74.90475       87.28002       59.67497
C         75.65546       86.06489       59.14866
O         76.78941       86.25240       58.72887
C         75.28537       87.59720       61.14275
C         74.83067       86.58635       62.16711
O         73.52247       86.32012       62.34301
O         75.64814       86.05123       62.89786
H         72.84732       87.38682       60.29965
H         75.29203       88.15335       59.10065
H         74.83786       88.57731       61.41529
H         76.39143       87.70890       61.20476
N         75.14443       84.79828       59.15359
C         75.94765       83.65917       58.70585
C         77.13105       83.36780       59.62852
O         78.01339       82.61447       59.24580
H         74.17768       84.63608       59.47306
H         76.31541       83.87470       57.67892
H         75.32510       82.74010       58.65367
N         77.16786       83.88467       60.88746
C         78.20658       83.68217       61.89302
C         78.44206       82.21815       62.22044
O         79.58093       81.80001       62.38705
C         79.50907       84.44593       61.58814
C         79.24689       85.93597       61.31830
C         80.50722       86.76185       61.24526
N         80.42387       88.08422       60.97475
O         81.60244       86.25431       61.44137
H         76.36374       84.43893       61.20003
H         77.80599       84.13110       62.83155
H         80.03854       83.99927       60.71898
H         80.15833       84.35455       62.48845
H         78.61519       86.35983       62.12852
H         78.70395       86.02863       60.35694
H         79.50935       88.52759       60.80266
H         81.27385       88.66570       60.93490
N         77.37720       81.39771       62.39748
C         77.46281       80.04782       62.94141
C         76.68321       80.01321       64.24192
O         77.22734       79.54298       65.23027
C         77.03682       78.94633       61.93228
C         75.61505       79.10303       61.37990
C         78.04664       78.87039       60.77587
H         76.44769       81.78299       62.18186
H         78.51494       79.79339       63.20819
H         77.08825       77.96878       62.46416
H         74.86896       79.07807       62.19840
H         75.51295       80.04813       60.80725
H         75.38576       78.25497       60.69851
H         79.06973       78.68662       61.17194
H         77.79603       78.02647       60.09812
H         78.05599       79.81351       60.19095
N         75.44570       80.59016       64.34191
C         74.70900       80.67760       65.59187
C         74.67044       82.13485       66.04743
O         74.85909       83.03295       65.24050
C         73.30791       80.07536       65.36239
C         72.54757       79.75370       66.62525
N         72.19914       78.47207       66.89686
O         72.22559       80.64350       67.39670
H         75.01144       81.03233       63.52158
H         75.23772       80.08324       66.36831
H         73.44676       79.12454       64.80382
H         72.70740       80.75185       64.71492
H         72.44784       77.70635       66.25222
H         71.67446       78.23805       67.75181
N         74.53208       82.42369       67.36896
C         74.55138       83.77932       67.92152
C         74.52330       83.67003       69.42919
O         73.67748       82.95414       69.94233
C         73.33788       84.61764       67.46761
C         73.43483       86.02505       68.02894
C         72.54811       86.46069       69.02780
C         74.43268       86.90620       67.57388
C         72.65600       87.74792       69.56208
C         74.53665       88.19597       68.10660
C         73.65184       88.62055       69.10300
O         73.77010       89.86334       69.61324
H         74.45815       81.62450       68.01541
H         75.48577       84.29074       67.60167
H         72.41892       84.10799       67.82875
H         73.26835       84.68516       66.36160
H         71.78355       85.79899       69.40747
H         75.12982       86.59598       66.80563
H         71.96858       88.06450       70.33584
H         75.30862       88.86534       67.74739
H         73.18359       90.19222       70.30971
N         75.40714       84.36007       70.20161
C         75.48826       84.17133       71.64079
C         74.97248       85.41396       72.34999
O         75.69470       86.39992       72.37816
C         76.95686       83.80233       71.97106
C         77.26056       83.41835       73.42539
C         77.18014       84.57635       74.37524
O         77.90580       85.54700       74.22348
O         76.33196       84.53548       75.41920
H         76.05375       85.02739       69.75412
H         74.87401       83.30837       71.93377
H         77.63996       84.62204       71.65267
H         77.20640       82.91227       71.35131
H         78.30340       83.03276       73.46620
H         76.57856       82.60097       73.74159
N         73.71837       85.50743       72.90322
C         72.65493       84.50140       72.81241
C         72.97010       83.21527       73.54861
O         73.29298       83.25010       74.72800
C         71.31191       85.01801       73.37581
C         70.68785       86.14342       72.53428
C         69.27850       86.46061       72.96504
O         68.76636       85.90050       73.92256
O         68.54437       87.32676       72.24425
H         73.47909       86.40495       73.35382
H         72.46645       84.27533       71.74170
H         71.41906       85.33179       74.43783
H         70.59462       84.16519       73.33451
H         70.62463       85.79736       71.48177
H         71.30995       87.06157       72.57369
N         72.80155       82.02257       72.91027
C         72.98676       80.74930       73.56524
H         72.28871       80.66480       74.42529
H         72.76103       79.92672       72.85172
H         74.03444       80.64759       73.91326
H         72.48796       82.01021       71.92884
Ca        66.35019       87.53542       72.74207
O         63.89081       87.48764       74.64347
H         63.64671       86.99262       75.46540
H         63.02807       87.65593       74.18770
O         66.10857       85.07476       75.26856
H         66.28006       84.37654       74.58791
H         65.41719       84.68330       75.85932
O         66.82113       87.99885       76.27202
H         66.27564       87.44537       76.88547
H         66.96703       88.84500       76.76513
O         65.14969       90.25145       73.06256
H         65.55914       90.34361       72.16549
H         64.20305       90.02503       72.88208
O         68.20838       89.69140       74.08344
H         67.63353       90.44199       74.37681
H         68.81450       90.08937       73.40943

Ca 1.0



