%chk=apoCaM-CA-Ng.loop2.water3.frame799.chk
%nprocshared=20
%mem=10GB
%nosave
#b3lyp/svp scf=(tight,noincore,xqc) Test 
#IOP(5/87=12) Density=Current Pop=(MK,readradii) iop(6/33=2) iop(6/42=6)

apoCaM-CA-Ng.loop2.water3.frame799 

   -2  1 
C         12.89656       68.61112       89.82550
C         13.41661       69.72299       90.68954
O         14.26968       69.45864       91.52065
H         12.11830       68.97078       89.12037
H         13.73278       68.17828       89.23722
H         12.45482       67.81895       90.46593
N         12.91888       70.98701       90.56778
C         13.35471       72.13107       91.36689
C         14.69100       72.68017       90.85558
O         14.71795       73.74663       90.25542
C         12.24078       73.20728       91.35043
C         12.56050       74.36691       92.25620
O         12.75939       74.16269       93.57298
O         12.63021       75.49866       91.80474
H         12.14428       71.13094       89.90095
H         13.44837       71.82935       92.43474
H         11.29466       72.75038       91.71542
H         12.07038       73.56595       90.31124
N         15.85321       72.01733       91.11074
C         17.17916       72.48267       90.71042
C         17.87654       71.39749       89.87917
O         17.32684       70.30740       89.79302
C         17.93061       72.77965       92.02099
H         15.81800       71.16167       91.67727
H         17.10114       73.41113       90.10563
H         18.94203       73.18748       91.90392
H         17.36021       73.53267       92.60568
H         18.01096       71.85424       92.63142
N         19.08252       71.55112       89.24486
C         19.85686       72.78738       89.15034
C         19.21192       73.80848       88.23310
O         18.32743       73.46524       87.46060
C         21.30867       72.50198       88.68897
C         21.45933       71.88230       87.31849
O         20.49171       71.63094       86.61775
O         22.69309       71.59427       86.86322
H         19.47521       70.70727       88.79897
H         19.96387       73.22512       90.14777
H         21.77541       71.81393       89.42660
H         21.88657       73.45136       88.70085
N         19.62479       75.10625       88.28169
C         19.13026       76.14374       87.39463
C         18.09978       77.00630       88.08035
O         17.73927       76.71959       89.21378
H         20.30677       75.38509       89.00360
H         18.63025       75.70270       86.50536
H         19.99962       76.73628       87.04153
N         17.49803       78.05016       87.44498
C         17.87856       78.56821       86.13233
C         16.92728       78.09574       85.03686
O         17.04555       78.58223       83.92045
C         17.88672       80.12017       86.20309
C         18.84245       80.70269       87.22349
N         18.90431       82.04439       87.39571
O         19.55940       79.97723       87.89729
H         16.71865       78.52150       87.93310
H         18.89401       78.23881       85.83411
H         16.86078       80.47238       86.45235
H         18.16281       80.53819       85.21094
H         18.30639       82.67496       86.84122
H         19.54737       82.45640       88.08861
N         15.95584       77.16354       85.26707
C         14.93146       76.84314       84.28584
C         15.37863       76.17954       82.99274
O         14.53642       76.11329       82.10851
H         15.86384       76.73326       86.19845
H         14.42527       77.79710       84.02344
H         14.16629       76.18318       84.74960
N         16.61079       75.61699       82.79416
C         16.96970       74.97626       81.51801
C         16.88511       73.45894       81.61416
O         16.61094       72.93260       82.68377
C         18.35406       75.45652       81.01241
C         18.37276       76.96104       80.73823
O         19.34828       75.13092       81.94827
H         17.28537       75.58749       83.57406
H         16.22540       75.23994       80.73539
H         18.56772       74.94900       80.04335
H         20.19623       75.01047       81.44466
H         19.36568       77.25458       80.33465
H         17.60063       77.21944       79.98227
H         18.18284       77.53568       81.66704
N         17.06646       72.69680       80.49224
C         16.91715       71.24610       80.44835
C         18.27244       70.62325       80.17320
O         18.93049       70.99674       79.21190
C         15.90803       70.80686       79.33911
C         15.72142       69.25843       79.36904
C         14.55312       71.52022       79.50619
C         14.93404       68.69626       78.18478
H         17.30921       73.16564       79.60692
H         16.52462       70.86740       81.41832
H         16.33036       71.10129       78.35223
H         15.22829       68.95736       80.31931
H         16.70937       68.75520       79.32846
H         14.68239       72.62144       79.45892
H         13.85666       71.25055       78.68654
H         14.08505       71.25495       80.47789
H         15.45256       68.94470       77.23427
H         14.88293       67.58942       78.27426
H         13.89616       69.08042       78.15360
N         18.70389       69.59776       80.95117
C         19.94531       68.86712       80.74240
C         19.62491       67.47187       80.24273
O         20.16388       67.09330       79.21282
C         20.73862       68.82736       82.05994
C         21.37036       70.16253       82.35659
O         22.32180       70.54321       81.69344
O         20.87911       70.96286       83.31775
H         18.08195       69.27182       81.70684
H         20.58392       69.34268       79.96333
H         21.56275       68.08330       82.01090
H         20.06065       68.51092       82.88284
N         18.75942       66.65286       80.90669
C         18.44608       65.29401       80.46534
C         17.53071       64.62942       81.49581
O         16.41211       64.26134       81.15253
C         17.76914       65.28169       79.05809
C         17.44112       63.89156       78.51693
C         16.44253       63.77024       77.53345
C         18.08499       62.71577       78.96895
C         16.08488       62.51418       77.03004
C         17.73071       61.46612       78.45407
C         16.72856       61.36389       77.48993
H         18.32477       67.00302       81.77359
H         19.39889       64.73070       80.40259
H         18.36713       65.79879       78.28229
H         16.82187       65.85777       79.15617
H         15.92550       64.64876       77.16817
H         18.86466       62.74064       79.71439
H         15.30467       62.43113       76.28473
H         18.23320       60.57450       78.80788
H         16.45163       60.39256       77.10031
N         17.91695       64.42698       82.79100
C         17.09400       63.71952       83.75692
C         15.75405       64.36964       84.06338
O         14.96248       63.74028       84.75119
C         17.96797       63.66106       85.01182
C         19.36211       63.63057       84.41309
C         19.24053       64.68298       83.31594
H         16.92897       62.69868       83.34107
H         17.88353       64.62647       85.56255
H         17.72044       62.82988       85.70602
H         20.18865       63.80931       85.13195
H         19.50842       62.63564       83.93180
H         19.25580       65.70691       83.75099
H         20.05897       64.55531       82.57824
N         15.42347       65.61946       83.61167
C         14.10487       66.19122       83.84156
C         13.09492       65.39249       83.04730
O         12.17070       64.84559       83.63367
C         13.99214       67.68992       83.45352
C         14.67194       68.66491       84.43623
C         16.14397       68.88514       84.25597
O         16.58548       70.14632       84.10057
O         16.94742       67.97343       84.34789
H         16.10647       66.16598       83.07426
H         13.85245       66.12773       84.92476
H         12.90839       67.92636       83.55073
H         14.27685       67.89819       82.39952
H         14.46469       68.34821       85.48036
H         14.19758       69.66185       84.29840
N         13.22465       65.26992       81.69805
C         12.29269       64.50395       80.90257
H         11.27697       64.94550       80.98182
H         12.60761       64.51531       79.83759
H         12.27012       63.45075       81.25539
H         14.01881       65.72278       81.22006
Ca        18.77682       70.59827       83.99615
O         19.88011       73.85870       84.64859
H         20.75352       74.24859       84.90415
H         20.05521       73.40603       83.78638
O         15.83902       72.61482       85.80173
H         15.65914       73.17525       86.59785
H         15.08295       72.80195       85.19041
O         17.85628       69.41904       86.85193
H         17.18551       70.08527       87.14516
H         17.36748       68.55825       86.86263

Ca 1.0



