%chk=apoCaM-CA-Ng.loop2.water4.frame532.chk
%nprocshared=20
%mem=10GB
%nosave
#b3lyp/svp scf=(tight,noincore,xqc) Test 
#IOP(5/87=12) Density=Current Pop=(MK,readradii) iop(6/33=2) iop(6/42=6)

apoCaM-CA-Ng.loop2.water4.frame532 

   -2  1 
C         74.71618        5.00495       31.90950
C         75.41102        3.68614       32.08038
O         75.52543        2.93779       31.12021
H         73.82899        5.04611       32.57606
H         75.40914        5.83086       32.17585
H         74.38109        5.14364       30.85960
N         75.90487        3.33598       33.29946
C         76.58525        2.07141       33.55541
C         77.82931        1.94887       32.69833
O         78.69073        2.81446       32.77233
C         76.96706        1.96897       35.04797
C         77.66462        0.67309       35.36457
O         78.91654        0.68608       35.86149
O         77.10345       -0.39350       35.17018
H         75.77948        4.00068       34.07973
H         75.88516        1.23688       33.32822
H         76.04681        2.03516       35.66803
H         77.63202        2.81763       35.32273
N         78.00949        0.85797       31.89739
C         79.22349        0.66311       31.11426
C         79.30505        1.66875       29.97476
O         78.28109        2.25593       29.65136
C         79.27564       -0.76644       30.56800
H         77.29086        0.11834       31.90022
H         80.05946        0.77874       31.81129
H         80.21344       -0.97077       30.02307
H         79.22492       -1.48462       31.41322
H         78.42399       -0.94865       29.88064
N         80.45300        1.95274       29.28810
C         81.80120        1.44063       29.58011
C         82.26930        1.77654       31.00452
O         81.62682        2.55667       31.69547
C         82.81462        1.99506       28.54558
C         82.84095        3.49306       28.54954
O         83.63821        4.10399       27.85588
O         81.97628        4.16499       29.32918
H         80.34512        2.61217       28.50035
H         81.79656        0.34290       29.47773
H         82.54648        1.65747       27.52208
H         83.83386        1.62150       28.78044
N         83.37886        1.16700       31.51963
C         83.80810        1.29841       32.91050
C         82.78501        0.70557       33.87580
O         81.74627        0.25015       33.42552
H         83.92738        0.54120       30.91155
H         83.98901        2.36948       33.15089
H         84.76096        0.74164       33.03472
N         82.96127        0.66212       35.22838
C         84.16297        1.06391       35.94594
C         83.93731        2.32264       36.76985
O         84.87566        2.75036       37.42921
C         84.62254       -0.09956       36.85298
C         84.98201       -1.33308       36.06032
N         84.33024       -2.50341       36.25941
O         85.88442       -1.27727       35.23823
H         82.18030        0.29652       35.79773
H         84.98601        1.30908       35.24324
H         83.81510       -0.33251       37.58283
H         85.52293        0.20324       37.42948
H         83.56959       -2.57788       36.95042
H         84.59026       -3.34386       35.72152
N         82.75974        3.01847       36.74123
C         82.58008        4.29060       37.42929
C         83.42665        5.42579       36.85478
O         83.35146        6.52414       37.38554
H         81.95559        2.65668       36.20931
H         82.80941        4.15296       38.50876
H         81.51585        4.59910       37.34324
N         84.26034        5.24271       35.78974
C         85.11478        6.28311       35.21989
C         84.28851        7.31429       34.45834
O         83.35008        6.93607       33.77088
C         86.23884        5.63510       34.35796
C         87.21893        4.88628       35.27598
O         85.74229        4.71966       33.41366
H         84.31490        4.31376       35.35782
H         85.64902        6.81808       36.03580
H         86.82303        6.42628       33.83970
H         84.98701        5.14798       32.94322
H         87.66959        5.58790       36.01163
H         86.70815        4.07400       35.83574
H         88.04098        4.43721       34.68119
N         84.59189        8.64815       34.54259
C         83.74107        9.71021       34.00156
C         84.33051       10.34218       32.74583
O         85.43509       10.86504       32.78196
C         83.50130       10.82290       35.06818
C         82.57943       11.93988       34.49186
C         82.91122       10.22506       36.35800
C         82.40877       13.14927       35.40710
H         85.43815        8.92964       35.06041
H         82.75291        9.28288       33.74677
H         84.48754       11.27504       35.31842
H         81.58220       11.52048       34.25076
H         83.01365       12.34142       33.55219
H         83.58268        9.44471       36.77250
H         82.81290       10.99988       37.14419
H         81.91533        9.77506       36.16121
H         83.39901       13.60152       35.62762
H         81.78178       13.90748       34.89057
H         81.90015       12.87763       36.35214
N         83.57040       10.38779       31.61305
C         83.92403       11.08491       30.37652
C         82.82531       12.03968       29.90884
O         83.05500       12.70347       28.90641
C         84.27755       10.08375       29.26463
C         83.20274        9.08539       29.00933
O         82.81725        8.32499       30.03660
O         82.77682        8.87405       27.88515
H         82.66134        9.91597       31.64421
H         84.83903       11.69469       30.53850
H         85.16875        9.50963       29.59895
H         84.55046       10.61015       28.32415
N         81.64229       12.21728       30.58146
C         80.74163       13.31902       30.26168
C         79.27425       12.93617       30.49945
O         78.61706       13.58861       31.29745
C         81.26317       14.50514       31.10733
C         80.66468       15.86325       30.86790
C         80.63233       16.42379       29.57954
C         80.21438       16.62313       31.96082
C         80.15378       17.72383       29.39110
C         79.74987       17.92624       31.76922
C         79.71938       18.47664       30.48563
H         81.47988       11.72939       31.47116
H         80.83497       13.58928       29.18843
H         82.34186       14.62353       30.86359
H         81.20491       14.23255       32.18522
H         80.98844       15.86562       28.72350
H         80.25338       16.22069       32.96600
H         80.13483       18.15354       28.39813
H         79.42727       18.51348       32.61905
H         79.36739       19.48937       30.34078
N         78.68292       11.88649       29.83503
C         77.30211       11.42804       30.01205
C         76.83638       11.32661       31.45125
O         75.71150       11.70969       31.73928
C         77.32557       10.02527       29.39232
C         78.25744       10.23156       28.22434
C         79.37327       11.05670       28.86360
H         76.61874       12.08508       29.42751
H         77.82479        9.31434       30.08940
H         76.32438        9.61614       29.13616
H         78.59620        9.31029       27.70569
H         77.71688       10.86842       27.48718
H         80.10274       10.41535       29.40202
H         79.88318       11.64279       28.06971
N         77.67147       10.83474       32.40729
C         77.31315       10.67716       33.81207
C         76.76450       11.97944       34.36159
O         75.62541       11.99392       34.80811
C         78.50133       10.21353       34.70925
C         79.07086        8.80512       34.42172
C         80.06314        8.69441       33.29429
O         80.55162        7.48828       32.96152
O         80.50689        9.67932       32.73605
H         78.60714       10.59421       32.09523
H         76.51290        9.90587       33.88412
H         78.08044       10.15600       35.73792
H         79.32142       10.96176       34.74040
H         78.22696        8.10120       34.26681
H         79.63165        8.47016       35.32165
N         77.51260       13.11716       34.33537
C         77.02959       14.39677       34.81356
H         75.99610       14.33761       35.21660
H         77.69831       14.76515       35.61809
H         77.03360       15.12534       33.97589
H         78.46519       13.08445       33.94315
Ca        82.39058        6.23648       29.74859
O         78.92581        5.24392       31.08044
H         78.42395        5.26986       30.22736
H         79.62767        4.56186       30.93255
O         84.88664        4.96260       30.38027
H         85.64675        4.37987       30.62789
H         85.13596        5.86432       30.70525
O         80.96929        4.87548       33.88704
H         80.12358        5.24247       34.24916
H         80.97084        3.92896       34.17335
O         79.70857        7.56527       29.53958
H         79.97509        8.07372       30.34569
H         80.28447        7.92224       28.81888

Ca 1.0



