%chk=apoCaM-CA-Ng.loop3.water3.frame878.chk
%nprocshared=20
%mem=10GB
%nosave
#b3lyp/svp scf=(tight,noincore,xqc) Test 
#IOP(5/87=12) Density=Current Pop=(MK,readradii) iop(6/33=2) iop(6/42=6)

apoCaM-CA-Ng.loop3.water3.frame878 

   0  1 
C         28.72745      105.54460       -4.57680
C         29.77074      106.29513       -5.34689
O         29.51044      106.70685       -6.46760
H         27.79192      105.44922       -5.16767
H         29.10254      104.53269       -4.32031
H         28.49916      106.09814       -3.64056
N         30.98251      106.54097       -4.77892
C         32.00818      107.35848       -5.42456
C         32.53221      106.67160       -6.68758
O         32.30552      105.47794       -6.83639
C         33.12725      107.64549       -4.39020
C         33.88453      108.91755       -4.62209
O         33.89945      109.86537       -3.66777
O         34.50034      109.10459       -5.64790
H         31.14116      106.18659       -3.82237
H         31.52506      108.31444       -5.69607
H         33.80690      106.76907       -4.31406
H         32.65981      107.79020       -3.39153
N         33.21805      107.35983       -7.65001
C         33.74462      106.73141       -8.86544
C         35.27619      106.78627       -8.90835
O         35.87530      105.93133       -9.54459
C         33.07805      107.37719      -10.10021
C         33.18435      106.53000      -11.38015
C         32.41518      107.19492      -12.53582
C         32.29398      106.26139      -13.74975
N         31.55865      106.90823      -14.83799
H         33.32829      108.37354       -7.53738
H         33.46463      105.65588       -8.85585
H         33.47775      108.40238      -10.25826
H         31.99026      107.46461       -9.88078
H         32.72136      105.54085      -11.16819
H         34.24349      106.37210      -11.67584
H         32.92914      108.13794      -12.82480
H         31.38404      107.44270      -12.20006
H         31.74708      105.34103      -13.44303
H         33.30329      105.96604      -14.11044
H         30.61077      107.20687      -14.51062
H         32.08925      107.74018      -15.18415
H         31.44141      106.22973      -15.62516
N         35.97294      107.74448       -8.22648
C         37.42675      107.81242       -8.10025
C         37.84974      107.76671       -6.61144
O         39.03002      107.92235       -6.33277
C         37.94280      109.05973       -8.87551
C         37.32762      110.34380       -8.40371
O         36.56923      110.98045       -9.11597
O         37.56172      110.73646       -7.15152
H         35.45636      108.49096       -7.75482
H         37.91007      106.93918       -8.59024
H         37.68057      108.91884       -9.94659
H         39.04938      109.13102       -8.80228
N         36.95167      107.47607       -5.61373
C         37.28095      107.29957       -4.19883
C         37.64391      108.55110       -3.40469
O         37.90066      108.39973       -2.21858
H         35.98447      107.24470       -5.86949
H         38.10026      106.55353       -4.11047
H         36.38969      106.86911       -3.69024
N         37.71102      109.79489       -3.96026
C         38.16880      110.98983       -3.24088
C         37.18052      112.21253       -3.33939
O         35.84618      111.89649       -3.60060
C         39.52757      111.36043       -3.88537
C         40.25319      112.53075       -3.27845
N         40.69554      112.48845       -2.00105
O         40.46393      113.52382       -3.95896
H         37.53324      109.86829       -4.95901
H         38.32119      110.74543       -2.16650
H         39.34448      111.57411       -4.96275
H         40.20635      110.48089       -3.83023
H         40.53901      111.65551       -1.41595
H         41.20072      113.29212       -1.59909
N         37.24305      113.07650       -2.14834
C         36.57659      114.37921       -2.32439
C         35.06289      114.27707       -2.31873
O         34.51401      113.66196       -1.41547
H         38.23759      113.28266       -1.91893
H         36.95750      114.90148       -3.23088
H         36.84607      115.00879       -1.44819
N         34.31917      114.92101       -3.26612
C         32.85339      114.91268       -3.28071
C         32.29966      113.59608       -3.81332
O         33.07367      112.70657       -4.13256
C         32.31786      116.11390       -4.10378
C         32.59045      117.44340       -3.43383
C         32.07742      117.70471       -2.14791
C         33.31715      118.44823       -4.09279
C         32.29262      118.93977       -1.53340
C         33.52423      119.68913       -3.47741
C         33.01162      119.93773       -2.19496
O         33.19580      121.12992       -1.59255
H         34.81615      115.50036       -3.96079
H         32.47283      115.02192       -2.24374
H         31.21579      116.06262       -4.19881
H         32.73623      116.07760       -5.13278
H         31.50132      116.95768       -1.61743
H         33.71180      118.27858       -5.08633
H         31.89062      119.12323       -0.54435
H         34.07733      120.45891       -4.00005
H         33.67368      121.85512       -2.01901
N         30.94282      113.41279       -3.90956
C         30.25913      112.19362       -4.34799
C         30.59975      111.84322       -5.79695
O         31.76871      111.71285       -6.12618
C         30.51207      111.01597       -3.36402
C         29.69686      109.74417       -3.73202
C         30.22127      111.43616       -1.90965
C         28.17109      109.87812       -3.66335
H         30.32565      114.18360       -3.61673
H         29.17001      112.40347       -4.29672
H         31.58249      110.74058       -3.41470
H         29.99831      108.92001       -3.04897
H         29.94729      109.43875       -4.76211
H         30.41069      110.58870       -1.21762
H         30.88275      112.27235       -1.60068
H         29.17079      111.77405       -1.79052
H         27.83239      110.12984       -2.63879
H         27.79486      110.64095       -4.37180
H         27.71120      108.90734       -3.94504
N         29.60680      111.60870       -6.70734
C         29.87904      111.25316       -8.10132
C         28.96849      111.94984       -9.11482
O         29.24543      111.82107      -10.30092
C         29.75014      109.73360       -8.27373
O         28.43979      109.32980       -7.98213
H         28.64046      111.57408       -6.35997
H         30.92413      111.53243       -8.35332
H         30.45992      109.23133       -7.58270
H         30.01162      109.45263       -9.31961
H         28.40360      108.35546       -8.16120
N         27.83051      112.62102       -8.76058
C         26.89491      113.15186       -9.75341
C         27.48121      114.34981      -10.49147
O         28.48022      114.88076      -10.02577
C         25.58800      113.54252       -9.05374
H         27.56361      112.68464       -7.77071
H         26.67771      112.33293      -10.47456
H         25.77555      114.33104       -8.29465
H         24.83717      113.91799       -9.76514
H         25.16001      112.65155       -8.54495
N         26.98317      114.83463      -11.67248
C         25.91101      114.23555      -12.46568
C         25.06766      115.31845      -13.14784
O         25.65995      116.17281      -13.79321
C         26.55100      113.36911      -13.55296
H         27.51609      115.60101      -12.11449
H         25.30234      113.54581      -11.86265
H         27.20900      113.97507      -14.21197
H         27.16209      112.56814      -13.08389
H         25.76225      112.88813      -14.17088
N         23.69855      115.35659      -13.13870
C         22.83865      114.37225      -12.49286
C         22.61272      114.70852      -11.02860
O         22.03693      113.88659      -10.32792
C         21.46296      114.28700      -13.19475
C         21.57736      113.91476      -14.68097
C         20.21542      113.75503      -15.29498
O         19.88519      112.68701      -15.78540
O         19.35275      114.78947      -15.31202
H         23.24420      116.10438      -13.68763
H         23.29620      113.36587      -12.59211
H         20.93017      115.25978      -13.09826
H         20.85547      113.50447      -12.68661
H         22.14133      112.96167      -14.78062
H         22.12326      114.70628      -15.23647
N         22.99419      115.90533      -10.49541
C         22.74693      116.23997       -9.11028
H         23.09787      117.27320       -8.90256
H         21.65797      116.18763       -8.89534
H         23.29095      115.53661       -8.44653
H         23.44778      116.62057      -11.08156
Ca        35.92151      111.39102       -5.78688
O         36.42702      114.19796       -6.90043
H         36.95958      114.29887       -6.07186
H         37.08505      113.93096       -7.59039
O         33.40668      113.80178       -7.38151
H         33.64346      114.67022       -6.97038
H         32.48658      113.93127       -7.72370
O         33.50947      111.01376       -8.69959
H         33.05724      110.93711       -9.57657
H         34.15014      110.26172       -8.68984

Ca 1.0



