%chk=apoCaM-CA-Ng.loop1.water1.frame892.chk
%nprocshared=20
%mem=10GB
%nosave
#b3lyp/svp scf=(tight,noincore,xqc) Test 
#IOP(5/87=12) Density=Current Pop=(MK,readradii) iop(6/33=2) iop(6/42=6)

apoCaM-CA-Ng.loop1.water1.frame892 

   0  1 
C         19.24803       -8.32978       45.16662
C         20.00397       -7.04283       44.99428
O         19.39771       -5.98593       45.09381
H         18.44509       -8.39343       44.40253
H         19.91248       -9.21212       45.04926
H         18.79229       -8.36462       46.17799
N         21.34146       -7.05695       44.73196
C         22.13308       -5.84268       44.54255
C         21.59093       -4.99348       43.40118
O         21.57371       -5.43589       42.26658
C         23.65207       -6.16073       44.41909
C         24.06800       -7.42205       43.66601
O         23.97435       -7.60833       42.32918
O         24.55777       -8.33057       44.31946
H         21.80590       -7.97480       44.67879
H         22.03809       -5.22563       45.46481
H         23.97677       -6.34425       45.46992
H         24.21874       -5.26720       44.07974
N         21.06500       -3.75928       43.66745
C         20.46414       -2.89834       42.65512
C         21.51583       -2.26291       41.76006
O         22.43277       -1.62894       42.26318
C         19.64228       -1.76879       43.31689
C         18.86405       -0.95793       42.26075
C         18.03054        0.15731       42.89379
C         17.23800        0.91283       41.81665
N         16.44707        1.99092       42.40683
H         21.02660       -3.44451       44.64932
H         19.73259       -3.50101       42.07015
H         20.31147       -1.09945       43.90173
H         18.90577       -2.22449       44.01485
H         18.18884       -1.64737       41.70645
H         19.56867       -0.49585       41.53578
H         18.70735        0.86440       43.42151
H         17.32159       -0.28105       43.62924
H         16.55758        0.20435       41.29261
H         17.93898        1.34243       41.06606
H         17.07765        2.68411       42.87120
H         15.91048        2.47428       41.65062
H         15.77286        1.60145       43.10506
N         21.35891       -2.29614       40.40919
C         22.21809       -1.56294       39.46961
C         21.62105       -1.53950       38.06340
O         20.63755       -2.22286       37.81545
C         23.68448       -2.08078       39.48628
C         23.82539       -3.50602       39.91519
O         23.21343       -4.51328       39.27311
O         24.47050       -3.75608       40.92176
H         20.53951       -2.80878       40.05262
H         22.21093       -0.48997       39.76445
H         24.24450       -1.47206       40.22982
H         24.18910       -1.94927       38.50852
N         22.09869       -0.73002       37.07144
C         23.25243        0.15797       37.14493
C         22.89549        1.59684       36.88117
O         21.72977        1.96010       36.93434
H         21.60312       -0.75782       36.16908
H         23.96152       -0.17527       36.35792
H         23.77871        0.14328       38.11589
N         23.89250        2.48449       36.60325
C         23.66896        3.90217       36.34038
C         22.80776        4.07955       35.09679
O         23.22901        3.67419       34.02135
C         25.03470        4.61228       36.16591
C         24.92268        6.10964       36.07704
O         25.53023        6.88049       36.99991
O         24.30817        6.63636       35.16369
H         24.86092        2.12552       36.58635
H         23.16738        4.34043       37.23137
H         25.55578        4.22618       35.26124
H         25.67022        4.37367       37.04695
N         21.58365        4.68064       35.17279
C         20.73572        4.91055       34.00726
C         20.23005        3.64534       33.33255
O         19.60099        3.76531       32.28929
H         21.25221        5.02747       36.08533
H         21.31470        5.50751       33.27038
H         19.84822        5.50767       34.30893
N         20.45219        2.40895       33.85504
C         20.05910        1.15708       33.22820
C         21.31906        0.35861       32.97588
O         22.06788        0.11602       33.91404
C         19.08629        0.37734       34.14078
C         17.78045        1.15376       34.34612
O         18.79343       -0.86316       33.54915
H         20.94326        2.32867       34.74905
H         19.54134        1.33476       32.25875
H         19.57737        0.21581       35.12930
H         18.44780       -1.45276       34.26976
H         17.27516        1.32102       33.37033
H         17.09658        0.57586       35.00315
H         17.97601        2.13573       34.82519
N         21.62418       -0.08356       31.72804
C         22.84399       -0.82282       31.43152
C         23.40901       -0.35516       30.09952
O         24.53263        0.12248       30.06277
C         22.61036       -2.36030       31.59246
C         23.95552       -3.12485       31.51053
C         21.56393       -2.94143       30.62287
C         23.84755       -4.59811       31.91360
H         20.94871        0.09211       30.96792
H         23.60938       -0.56936       32.20184
H         22.21293       -2.49786       32.62366
H         24.67413       -2.65622       32.21800
H         24.37940       -3.05004       30.48572
H         21.93924       -2.94202       29.57965
H         21.32259       -3.99095       30.88362
H         20.61336       -2.37178       30.68553
H         24.85633       -5.06138       31.89049
H         23.44607       -4.68366       32.94651
H         23.19949       -5.16757       31.21811
N         22.66236       -0.44564       28.96378
C         23.12319       -0.00357       27.65529
C         22.33984       -0.74006       26.58604
O         21.12165       -0.80978       26.65721
C         23.02420        1.53076       27.50622
C         23.62146        1.99457       26.17073
O         21.68831        1.95656       27.58368
H         21.71759       -0.84264       29.03196
H         24.19411       -0.28533       27.54218
H         23.63005        2.01845       28.30548
H         21.47675        2.07252       28.54621
H         23.58088        3.10132       26.09824
H         24.68425        1.67729       26.09379
H         23.06119        1.56774       25.31129
N         23.00940       -1.32022       25.55673
C         22.37624       -2.17580       24.56759
C         23.15149       -3.47789       24.48710
O         22.53483       -4.52832       24.61710
C         22.24618       -1.45428       23.20871
C         21.42925       -2.29811       22.21573
O         23.50659       -1.15119       22.67412
H         24.01850       -1.13826       25.47726
H         21.32982       -2.40512       24.87302
H         21.68222       -0.50994       23.39814
H         23.35561       -0.47519       21.96211
H         21.94316       -3.25509       21.98688
H         20.42583       -2.52493       22.63984
H         21.27865       -1.73798       21.26939
N         24.50955       -3.48943       24.30888
C         25.28212       -4.71613       24.18012
C         26.21346       -4.93549       25.35781
O         26.40088       -4.05232       26.18558
C         26.11337       -4.67399       22.88254
C         25.24133       -4.44857       21.63999
C         26.04914       -4.46982       20.33087
C         27.15320       -3.39871       20.21361
N         26.62575       -2.03583       20.30050
H         25.02860       -2.60013       24.25201
H         24.59552       -5.59029       24.15095
H         26.67257       -5.62720       22.76545
H         26.84973       -3.84514       22.96944
H         24.69825       -3.48432       21.72282
H         24.48287       -5.25894       21.58896
H         25.33784       -4.33821       19.48735
H         26.52290       -5.46955       20.22268
H         27.64883       -3.52997       19.22630
H         27.93264       -3.54875       20.99111
H         27.40437       -1.36023       20.12425
H         25.88231       -1.88815       19.58020
H         26.24336       -1.84932       21.25480
N         26.80216       -6.15515       25.49107
C         27.72651       -6.54828       26.54847
C         27.19797       -6.23322       27.94908
O         27.93625       -5.59298       28.68428
C         28.10193       -8.04085       26.36733
C         29.19680       -8.52377       27.32670
C         29.60959       -9.92928       26.98309
O         28.71062      -10.93160       27.02474
O         30.76154      -10.16758       26.65571
H         26.55496       -6.87028       24.78746
H         28.66736       -5.96779       26.41044
H         28.48943       -8.16207       25.33021
H         27.20449       -8.68689       26.47557
H         28.82946       -8.49726       28.37428
H         30.08129       -7.85517       27.24104
N         25.96583       -6.58037       28.42743
C         24.91749       -7.26096       27.69784
H         24.03634       -6.58615       27.63218
H         25.20268       -7.54982       26.67475
H         24.62188       -8.17767       28.24642
H         25.73049       -6.29644       29.39196
Ca        23.38526       -6.33015       40.57510
O         20.95230       -6.94525       38.60066
H         20.59490       -6.90591       37.67810
H         20.17895       -7.21737       39.15598

Ca 1.0



