%chk=apoCaM-CA-Ng.loop3.water3.frame810.chk
%nprocshared=20
%mem=10GB
%nosave
#b3lyp/svp scf=(tight,noincore,xqc) Test 
#IOP(5/87=12) Density=Current Pop=(MK,readradii) iop(6/33=2) iop(6/42=6)

apoCaM-CA-Ng.loop3.water3.frame810 

   0  1 
C         72.95228       82.92400       78.64189
C         71.51880       83.04527       79.05964
O         71.20952       82.81622       80.21970
H         73.58702       82.60822       79.49718
H         73.04548       82.18024       77.82435
H         73.31132       83.91168       78.28083
N         70.58275       83.44107       78.15479
C         69.18748       83.68490       78.51453
C         68.49068       82.37811       78.93767
O         69.06665       81.31233       78.76647
C         68.49053       84.39199       77.31602
C         67.29280       85.24996       77.63001
O         66.67024       85.75491       76.71128
O         66.94776       85.56222       78.88983
H         70.90242       83.64387       77.19408
H         69.20123       84.38764       79.36027
H         68.24110       83.62576       76.54971
H         69.19811       85.11131       76.84896
N         67.24490       82.39071       79.49015
C         66.47319       81.19490       79.84302
C         65.24136       81.11737       78.95031
O         65.04270       80.09878       78.30256
C         66.03325       81.20978       81.32867
C         67.14711       80.80876       82.31389
C         66.59476       80.72425       83.75316
C         67.59372       80.07117       84.72050
N         67.03393       79.97524       86.07093
H         66.80114       83.30201       79.64542
H         67.05111       80.25894       79.67101
H         65.24054       80.43823       81.44971
H         65.58928       82.19202       81.59651
H         68.00425       81.51289       82.27027
H         67.50459       79.79708       82.01898
H         65.67612       80.09701       83.75670
H         66.32568       81.74438       84.10687
H         68.53879       80.65588       84.75189
H         67.82801       79.04385       84.35841
H         66.14072       79.43012       86.05799
H         67.71451       79.48031       86.69312
H         66.85642       80.93057       86.45654
N         64.39195       82.17626       78.84687
C         63.20813       82.20378       77.98274
C         63.47775       82.88770       76.64127
O         62.55193       82.96099       75.84332
C         61.98619       82.84102       78.71278
C         62.18852       84.28194       79.12422
O         63.39898       84.82456       78.95014
O         61.30695       84.90197       79.69487
H         64.65572       83.01843       79.36429
H         62.91747       81.16286       77.72116
H         61.76193       82.24479       79.62399
H         61.10279       82.78664       78.04176
N         64.71604       83.34167       76.27918
C         64.99154       83.85496       74.94356
C         64.33949       85.18670       74.62137
O         64.38354       85.56249       73.45810
H         65.51134       83.23210       76.92155
H         64.64531       83.09482       74.20857
H         66.08693       83.97248       74.79603
N         63.74344       85.96770       75.57094
C         63.04619       87.21039       75.25588
C         63.71157       88.40953       75.91657
O         63.77697       88.47000       77.13619
C         61.58054       87.08857       75.73182
C         60.71230       88.29351       75.43169
N         59.42669       88.31227       75.85094
O         61.15654       89.25385       74.81918
H         63.76348       85.66927       76.55522
H         63.02600       87.37605       74.15649
H         61.57534       86.92051       76.83107
H         61.11678       86.20255       75.24582
H         59.03305       87.51620       76.37330
H         58.82568       89.12810       75.66073
N         64.14695       89.45013       75.14899
C         64.55406       90.73516       75.68952
C         65.77132       90.67651       76.57952
O         66.83941       90.29838       76.11899
H         64.09072       89.37289       74.12218
H         63.69056       91.16494       76.24300
H         64.77768       91.42902       74.85047
N         65.67686       91.10961       77.86881
C         66.80863       91.22111       78.79149
C         67.44976       89.87419       79.07473
O         66.97434       88.86251       78.58309
C         66.32333       91.88221       80.10692
C         65.77131       93.29526       79.95936
C         65.09871       93.86089       81.05619
C         65.90092       94.06395       78.78063
C         64.55603       95.14698       80.97658
C         65.36868       95.35331       78.70968
C         64.69091       95.89811       79.80159
O         64.17362       97.14023       79.70867
H         64.75175       91.42716       78.19678
H         67.59614       91.85668       78.33090
H         67.13314       91.92278       80.86454
H         65.51579       91.23207       80.51242
H         64.97970       93.29586       81.97319
H         66.41501       93.69112       77.90727
H         64.02950       95.55874       81.82884
H         65.48258       95.92993       77.79934
H         63.68831       97.55205       80.43770
N         68.58853       89.81658       79.83673
C         69.36216       88.60477       80.11125
C         68.56291       87.63507       80.98076
O         67.37201       87.48217       80.75339
C         69.88790       87.95140       78.79196
C         70.91294       86.81444       79.05035
C         70.48932       88.99561       77.82657
C         72.24866       87.24171       79.66569
H         68.97002       90.69935       80.20668
H         70.25046       88.92694       80.69435
H         69.02499       87.49649       78.26305
H         71.13553       86.31472       78.08181
H         70.46516       86.06766       79.72657
H         71.33445       89.54122       78.29243
H         70.84082       88.49978       76.89652
H         69.72840       89.74456       77.52495
H         72.78910       87.94983       79.00513
H         72.11097       87.69971       80.66479
H         72.89100       86.34454       79.79052
N         69.14942       86.91758       81.98387
C         68.39918       85.98809       82.83471
C         68.55587       86.25071       84.32645
O         67.87132       85.59808       85.09853
C         68.82777       84.54755       82.53492
O         70.19386       84.38487       82.80378
H         70.17074       87.00042       82.10940
H         67.31338       86.06658       82.61538
H         68.62379       84.32858       81.47089
H         68.23026       83.84484       83.15896
H         70.39085       83.42396       82.65850
N         69.47226       87.13390       84.81691
C         69.70158       87.30199       86.24940
C         68.52844       88.01024       86.92696
O         67.69118       88.54281       86.21045
C         70.98133       88.12169       86.41871
H         70.07804       87.64592       84.16456
H         69.86430       86.29729       86.69222
H         71.22872       88.25050       87.46590
H         71.83325       87.59724       85.93467
H         70.86883       89.12871       85.96453
N         68.37334       88.11595       88.28527
C         69.14524       87.40341       89.30478
C         68.97379       88.07512       90.66591
O         67.83567       88.21706       91.09361
C         68.62783       85.96000       89.41935
H         67.56275       88.66558       88.61164
H         70.20702       87.35489       89.04543
H         69.19856       85.41199       90.20027
H         67.55189       85.95029       89.69871
H         68.73819       85.41316       88.46272
N         70.01386       88.47710       91.45911
C         71.43472       88.35496       91.14512
C         71.85198       89.37685       90.10758
O         72.53494       89.01351       89.16333
C         72.28062       88.52627       92.42539
C         73.76858       88.22555       92.16926
C         74.55379       88.24931       93.44730
O         74.25217       87.38955       94.43981
O         75.48247       89.02876       93.58558
H         69.76613       88.85268       92.38885
H         71.64703       87.31826       90.79985
H         71.90524       87.79295       93.17318
H         72.16096       89.54913       92.84667
H         74.18781       88.96730       91.45497
H         73.87524       87.21188       91.72364
N         71.50505       90.68700       90.23655
C         71.87484       91.67860       89.24928
H         72.98031       91.74778       89.17052
H         71.44997       91.40407       88.25923
H         71.47327       92.67280       89.54035
H         70.94316       90.98806       91.04653
Ca        64.89761       86.44090       79.23186
O         64.71634       88.34323       81.84084
H         65.46732       88.98237       81.76212
H         65.06741       87.61674       82.41545
O         65.13064       84.78457       81.74320
H         64.19342       85.09959       81.76764
H         65.33686       84.54295       82.68134
O         62.28276       88.32189       79.75894
H         61.79804       87.50740       79.47294
H         61.98745       89.01906       79.12190

Ca 1.0



