%chk=apoCaM-CA-Ng.loop2.water4.frame1164.chk
%nprocshared=20
%mem=10GB
%nosave
#b3lyp/svp scf=(tight,noincore,xqc) Test 
#IOP(5/87=12) Density=Current Pop=(MK,readradii) iop(6/33=2) iop(6/42=6)

apoCaM-CA-Ng.loop2.water4.frame1164 

   -2  1 
C         92.00011       70.62186      107.88988
C         91.21941       69.58937      108.65831
O         91.48617       68.41049      108.47720
H         92.75278       70.13527      107.23315
H         91.31812       71.22071      107.25091
H         92.53780       71.28893      108.59660
N         90.24146       69.91598      109.55269
C         89.81573       71.28028      109.85780
C         88.33272       71.45642      109.57544
O         87.67608       70.49629      109.19917
C         90.16104       71.64343      111.32011
C         89.42070       70.83635      112.35249
O         88.67011       71.39644      113.13565
O         89.60687       69.50637      112.44990
H         89.76960       69.14079      110.04223
H         90.35629       72.00712      109.21926
H         89.92885       72.71821      111.48251
H         91.25239       71.51610      111.48255
N         87.75930       72.68980      109.71158
C         86.35782       73.03358      109.47890
C         85.39203       71.85916      109.57908
O         84.69534       71.56150      108.61813
C         86.24881       73.78326      108.14521
H         88.37838       73.48084      109.94553
H         86.04263       73.73415      110.28366
H         85.20620       74.12921      107.97861
H         86.91384       74.67305      108.14975
H         86.54914       73.11921      107.30610
N         85.26671       71.18340      110.76014
C         84.29508       70.11074      110.96612
C         83.89455       69.94618      112.46624
O         84.84656       70.29177      113.44231
C         84.56809       68.82739      110.09540
C         85.81297       67.94129      110.12827
O         86.83496       68.05101      110.99650
O         85.88577       67.05665      109.29022
H         85.83509       71.50804      111.55635
H         83.32475       70.48141      110.56595
H         84.52533       69.17281      109.04289
H         83.69740       68.15016      110.22473
N         83.14343       68.71196      112.75378
C         82.87176       68.52017      114.18717
C         83.75034       67.41895      114.71603
O         84.95947       67.49126      114.54845
H         82.23219       68.79106      112.24573
H         81.80278       68.25592      114.34512
H         83.04473       69.44902      114.77435
N         83.21178       66.37285      115.40343
C         84.03916       65.31802      115.97963
C         84.42230       64.29307      114.92761
O         83.86925       64.30214      113.83551
C         83.30743       64.65556      117.16219
C         83.03288       65.67701      118.24265
N         81.76576       66.00586      118.58630
O         83.97074       66.22419      118.80421
H         82.19738       66.37566      115.59336
H         84.97205       65.77667      116.37861
H         83.92388       63.84100      117.59959
H         82.35688       64.20842      116.79586
H         80.95852       65.56928      118.11868
H         81.59090       66.71396      119.31524
N         85.42011       63.40138      115.18275
C         85.88383       62.43112      114.20401
C         84.95492       61.23885      114.08138
O         83.96004       61.18626      114.79075
H         85.92748       63.46606      116.07852
H         86.85958       62.02922      114.54901
H         86.04172       62.94040      113.22913
N         85.22168       60.18987      113.24575
C         86.33694       60.13271      112.29952
C         85.82164       59.89865      110.89116
O         84.63534       59.66170      110.70686
C         87.33646       59.01800      112.69345
C         88.05183       59.35155      114.00254
O         86.68093       57.78250      112.82997
H         84.58258       59.37871      113.27653
H         86.88707       61.09404      112.27323
H         88.14086       58.93644      111.92555
H         86.54514       57.42163      111.91550
H         88.78291       58.55176      114.24584
H         88.60902       60.30766      113.89587
H         87.32937       59.44295      114.84005
N         86.67627       59.98603      109.83279
C         86.24439       59.78224      108.45681
C         86.17293       58.28273      108.17516
O         87.22923       57.66406      108.18227
C         87.21681       60.49265      107.46457
C         87.32730       62.02231      107.73537
C         86.82731       60.22816      105.99591
C         86.01598       62.80679      107.60798
H         87.65525       60.25516      110.01466
H         85.28328       60.28968      108.31233
H         88.23676       60.06903      107.60562
H         88.05961       62.45521      107.01997
H         87.72786       62.19726      108.75559
H         87.54350       60.73525      105.31460
H         86.87123       59.14279      105.76678
H         85.80017       60.58294      105.77451
H         86.21022       63.88476      107.78544
H         85.59533       62.69907      106.59204
H         85.26719       62.48013      108.35804
N         85.02541       57.58963      107.89999
C         83.65819       58.10669      107.96206
C         82.97892       58.07004      106.60701
O         83.52858       57.52470      105.66250
C         82.86443       57.28781      109.00928
C         82.80272       55.81164      108.69755
O         82.25338       55.41230      107.68328
O         83.35251       54.92179      109.54651
H         85.13213       56.58969      107.66609
H         83.62643       59.15216      108.29098
H         81.82836       57.67618      109.10222
H         83.36083       57.41316      109.99571
N         81.75146       58.65738      106.45773
C         80.95518       58.55237      105.23576
C         79.74607       59.48683      105.32283
O         79.05077       59.41441      106.32399
C         80.50710       57.07465      105.06840
C         79.85302       56.79014      103.73758
C         78.54275       57.21596      103.45710
C         80.56554       56.07919      102.75492
C         77.96635       56.94657      102.21090
C         79.98819       55.81739      101.51133
C         78.69007       56.25193      101.23807
H         81.36808       59.17776      107.26010
H         81.58867       58.82979      104.37231
H         79.84755       56.74546      105.90150
H         81.41265       56.43932      105.13056
H         77.96545       57.75163      104.19877
H         81.57599       55.73832      102.94506
H         76.95842       57.27760      101.99781
H         80.55056       55.27892      100.75962
H         78.24552       56.04780      100.27296
N         79.38125       60.35009      104.31143
C         79.94498       60.36593      102.96957
C         81.28468       61.05628      102.84719
O         82.22992       60.43162      102.39085
C         78.88184       61.08881      102.11434
C         77.61095       60.85690      102.91336
C         78.12827       61.07856      104.32671
H         79.99778       59.31743      102.60826
H         79.03419       62.18909      102.12815
H         78.85417       60.77459      101.04932
H         76.76413       61.51496      102.62408
H         77.30332       59.79454      102.80942
H         78.35244       62.16097      104.46904
H         77.40775       60.75490      105.10638
N         81.41144       62.37929      103.16475
C         82.59080       63.15182      102.81420
C         82.37396       63.71035      101.41247
O         81.41932       64.45357      101.23169
C         82.82300       64.32817      103.79360
C         82.99151       63.91499      105.26421
C         81.70593       63.45971      105.89660
O         80.75175       64.21958      105.96146
O         81.60475       62.22000      106.41132
H         80.58128       62.89448      103.48873
H         83.48905       62.50196      102.86823
H         82.00362       65.07791      103.72426
H         83.76291       64.83058      103.47357
H         83.34412       64.79769      105.84054
H         83.76030       63.12040      105.33236
N         83.17239       63.41096      100.34925
C         84.32215       62.53897      100.41826
H         85.07125       62.95175      101.12552
H         84.01334       61.52191      100.73571
H         84.79126       62.46017       99.41419
H         82.94368       63.82659       99.43235
Ca        86.66866       69.27102      112.78580
O         86.15303       69.63810      116.25611
H         85.32517       69.38431      116.73617
H         86.17376       70.62694      116.29909
O         89.19217       69.76890      115.68038
H         89.95867       69.18209      115.89969
H         88.98443       70.23510      116.52882
O         87.62451       66.69223      115.90918
H         87.93343       67.22329      116.68541
H         88.15694       65.85856      115.95068
O         88.57574       66.27732      112.93913
H         88.69867       65.43640      113.44702
H         88.46643       65.98418      111.99988

Ca 1.0



