%chk=apoCaM-CA-Ng.loop1.water1.frame873.chk
%nprocshared=20
%mem=10GB
%nosave
#b3lyp/svp scf=(tight,noincore,xqc) Test 
#IOP(5/87=12) Density=Current Pop=(MK,readradii) iop(6/33=2) iop(6/42=6)

apoCaM-CA-Ng.loop1.water1.frame873 

   0  1 
C         29.86555       -7.52624        8.16845
C         28.95308       -7.34850        9.34305
O         27.75621       -7.56560        9.21552
H         30.62866       -8.29668        8.40935
H         29.29748       -7.85322        7.27231
H         30.37548       -6.56603        7.94549
N         29.46933       -6.96994       10.54319
C         28.65800       -6.82942       11.74816
C         27.57358       -5.74800       11.62341
O         27.54704       -5.00258       10.65376
C         29.56385       -6.64616       12.98668
C         30.47319       -5.44810       12.92881
O         30.44701       -4.60094       11.88281
O         31.16518       -5.17880       13.89747
H         30.49061       -6.83532       10.60306
H         28.12213       -7.79452       11.89296
H         30.20105       -7.54905       13.10121
H         28.92497       -6.56645       13.89348
N         26.56370       -5.71975       12.54168
C         25.31600       -4.96593       12.37139
C         25.38408       -3.46014       12.60464
O         24.35473       -2.83243       12.38927
C         24.22952       -5.54965       13.31432
C         24.52907       -5.26539       14.80053
C         23.53994       -5.96695       15.73136
C         23.88492       -5.65050       17.19362
N         23.01296       -6.37840       18.11207
H         26.60904       -6.42588       13.29074
H         24.96461       -5.14529       11.32979
H         24.16713       -6.64604       13.13837
H         23.23421       -5.11712       13.06495
H         24.48693       -4.16923       14.98417
H         25.54761       -5.62035       15.05815
H         23.60925       -7.06426       15.56502
H         22.50178       -5.63439       15.51073
H         23.78082       -4.55608       17.36960
H         24.94096       -5.93764       17.39765
H         23.13947       -7.40840       17.98015
H         23.27304       -6.13063       19.09410
H         22.01415       -6.11813       17.94612
N         26.48730       -2.81103       13.08914
C         26.44777       -1.38821       13.46177
C         27.14112       -0.47364       12.46015
O         27.92373       -0.95463       11.65920
C         26.86136       -1.15054       14.94211
C         28.19264       -1.63170       15.47590
O         28.42132       -1.45022       16.66093
O         29.07403       -2.37022       14.78111
H         27.34419       -3.35215       13.24053
H         25.39155       -1.06544       13.39747
H         26.09468       -1.65820       15.56764
H         26.81625       -0.07093       15.17584
N         26.80558        0.84931       12.31718
C         25.76805        1.54738       13.07117
C         24.52209        1.71799       12.23588
O         24.51387        1.34254       11.07108
H         27.24743        1.37656       11.54759
H         26.15290        2.52230       13.43764
H         25.44156        0.98664       13.95885
N         23.38982        2.20980       12.81420
C         22.10243        2.27781       12.12747
C         21.54104        3.68779       12.13009
O         22.13393        4.58025       12.72170
C         21.12738        1.27398       12.78802
C         20.87990        1.54567       14.24991
O         20.35600        2.58842       14.60809
O         21.22296        0.62513       15.17134
H         23.42736        2.48448       13.80868
H         22.21335        1.97484       11.06365
H         21.56196        0.25532       12.68617
H         20.15293        1.27070       12.25620
N         20.36878        3.95036       11.48329
C         19.72965        5.25282       11.49219
C         20.59100        6.29372       10.83323
O         20.96521        7.25570       11.49006
H         19.88898        3.18756       10.98240
H         19.50816        5.54000       12.54334
H         18.76564        5.19812       10.94136
N         20.93264        6.17492        9.51924
C         21.75570        7.17054        8.83794
C         23.14893        7.25577        9.44535
O         23.50277        6.44197       10.28857
C         21.83450        6.89922        7.30742
C         22.50488        5.56523        6.94977
O         20.54424        6.91615        6.75385
H         20.56128        5.37000        8.99356
H         21.26543        8.16090        8.97310
H         22.44701        7.69420        6.82114
H         20.29707        7.86986        6.62714
H         21.93203        4.70133        7.34139
H         22.56283        5.46619        5.84461
H         23.53510        5.51426        7.35455
N         23.99279        8.24529        9.04444
C         25.35877        8.39853        9.53277
C         25.50313        9.73516       10.24163
O         26.02587        9.77029       11.34639
C         26.38461        8.30401        8.36215
C         26.07445        7.09460        7.44400
C         27.81399        8.21313        8.94223
C         27.02925        6.95171        6.25810
H         23.64916        8.91061        8.33781
H         25.60645        7.58129       10.24791
H         26.30537        9.22053        7.73531
H         25.06485        7.24378        7.00824
H         26.07391        6.14984        8.02925
H         27.92819        7.28144        9.53951
H         28.58014        8.21733        8.14249
H         28.03680        9.07963        9.59793
H         26.67760        6.12721        5.60286
H         27.05383        7.89067        5.66505
H         28.05378        6.69633        6.59520
N         25.04374       10.87926        9.65482
C         25.22940       12.21614       10.20549
C         25.78100       13.12196        9.11002
O         25.73859       12.74941        7.94463
C         23.87977       12.74881       10.75151
C         23.37394       11.87957       11.91218
O         24.02842       14.06790       11.20931
H         24.52790       10.81007        8.76725
H         25.96797       12.18711       11.03657
H         23.13516       12.72257        9.92009
H         23.12107       14.47291       11.21845
H         22.40412       12.26979       12.28680
H         23.21798       10.82929       11.58886
H         24.10588       11.89443       12.74884
N         26.33004       14.33084        9.41654
C         26.83748       15.24699        8.40154
C         28.33938       15.41047        8.55168
O         29.05201       15.10524        7.60427
C         26.05595       16.58046        8.46702
C         26.47806       17.54620        7.35493
O         26.22122       17.19359        9.71925
H         26.39950       14.60789       10.40685
H         26.65641       14.83510        7.38266
H         24.97968       16.32549        8.31650
H         25.44002       17.79043        9.85597
H         26.32729       17.07472        6.36023
H         25.85738       18.46571        7.40272
H         27.54525       17.83289        7.46371
N         28.89265       15.88238        9.70531
C         30.32873       16.06982        9.88451
C         30.86377       15.26906       11.05763
O         30.09966       14.77362       11.87480
C         30.66279       17.56714       10.11938
C         29.84286       18.19753       11.26646
C         30.42215       19.55062       11.70193
C         29.55837       20.25736       12.76299
N         28.30952       20.77529       12.19818
H         28.27226       16.11750       10.49208
H         30.88108       15.72823        8.98139
H         30.47109       18.15496        9.19545
H         31.74899       17.65214       10.34159
H         29.84845       17.53802       12.16117
H         28.79733       18.30778       10.91401
H         30.55866       20.22928       10.83362
H         31.42234       19.34916       12.14640
H         30.13842       21.11754       13.16369
H         29.34308       19.56986       13.61200
H         27.70048       20.00370       11.84758
H         27.78859       21.29495       12.94084
H         28.52322       21.43960       11.41839
N         32.21431       15.16671       11.21096
C         32.87534       14.64446       12.39917
C         32.41383       13.24117       12.78769
O         31.92253       13.11252       13.90027
C         34.41319       14.75665       12.23909
C         35.17639       14.46000       13.53431
C         36.65257       14.65519       13.32944
O         37.31468       15.58989       14.03777
O         37.25849       13.97135       12.51936
H         32.80954       15.55470       10.46131
H         32.60079       15.32838       13.23485
H         34.65353       15.80319       11.94410
H         34.78306       14.09079       11.43439
H         34.99072       13.41662       13.86542
H         34.82514       15.15535       14.32752
N         32.51464       12.12939       12.00151
C         33.01543       12.07781       10.64548
H         33.90386       11.41263       10.61076
H         32.22814       11.65245        9.98884
H         33.28484       13.06508       10.23740
H         32.19354       11.23226       12.39884
Ca        29.61907       -2.70978       12.64226
O         28.99253       -2.26726        9.19677
H         28.23916       -1.67954        8.93628
H         29.29804       -2.67079        8.34606

Ca 1.0



