%chk=apoCaM-CA-Ng.loop2.water4.frame1301.chk
%nprocshared=20
%mem=10GB
%nosave
#b3lyp/svp scf=(tight,noincore,xqc) Test 
#IOP(5/87=12) Density=Current Pop=(MK,readradii) iop(6/33=2) iop(6/42=6)

apoCaM-CA-Ng.loop2.water4.frame1301 

   -2  1 
C         55.82926       19.93476       89.23507
C         55.72424       21.41405       89.53243
O         56.77218       22.04357       89.52996
H         56.52935       19.47831       89.96618
H         54.90124       19.34688       89.29495
H         56.24727       19.79627       88.21625
N         54.56433       22.08868       89.80899
C         53.20861       21.53289       89.79781
C         52.55338       21.51364       91.17890
O         51.56206       20.80747       91.30658
C         52.31982       22.25783       88.74925
C         52.10974       23.72280       89.03953
O         51.42883       24.41522       88.30089
O         52.66976       24.25299       90.13497
H         54.67611       23.08906       90.02256
H         53.23411       20.48078       89.48329
H         51.32477       21.76304       88.71059
H         52.79440       22.15990       87.74934
N         53.01477       22.23568       92.25127
C         52.45806       22.07040       93.59559
C         51.57733       23.21909       94.07568
O         50.96367       23.03652       95.11900
C         53.60165       21.83547       94.59089
H         53.79991       22.89202       92.13141
H         51.80391       21.17184       93.61510
H         54.25966       22.73180       94.63351
H         53.20607       21.64247       95.61100
H         54.21354       20.96263       94.28018
N         51.45648       24.41436       93.42011
C         50.59178       25.49099       93.91544
C         49.72532       26.13553       92.84066
O         50.24960       26.72356       91.91262
C         51.37274       26.52359       94.75927
C         52.47898       27.41586       94.21886
O         52.97375       27.42676       92.95990
O         52.97592       28.19803       95.01325
H         52.03991       24.57531       92.59854
H         49.88182       25.05832       94.65420
H         51.81806       25.96046       95.60906
H         50.60754       27.20912       95.18740
N         48.36282       26.10948       92.93391
C         47.49397       26.78812       91.98270
C         47.72000       28.28520       92.02487
O         47.54373       28.87858       93.07944
H         47.91586       25.60608       93.71482
H         46.43215       26.59165       92.24658
H         47.67165       26.37952       90.96403
N         48.13483       28.95447       90.91141
C         48.44446       30.38126       90.88405
C         47.61612       31.09772       89.83860
O         47.54554       30.64711       88.70286
C         49.93236       30.58991       90.56282
C         50.81494       30.03027       91.64409
N         50.76515       30.51654       92.90731
O         51.59477       29.13507       91.37160
H         48.27940       28.41871       90.04267
H         48.25235       30.85600       91.87020
H         50.15269       31.67663       90.47702
H         50.16994       30.11316       89.58658
H         50.12630       31.28561       93.15553
H         51.37607       30.13075       93.64159
N         47.03548       32.28966       90.14441
C         46.28366       33.06664       89.16812
C         45.94125       34.45677       89.67907
O         46.37610       34.82499       90.76161
H         47.17969       32.66133       91.09470
H         45.35748       32.50926       88.91407
H         46.89817       33.19600       88.25212
N         45.16179       35.32395       88.97560
C         44.51154       35.03125       87.70130
C         45.52330       34.82358       86.58199
O         45.44973       33.80926       85.90274
C         43.51322       36.16039       87.31742
C         42.38358       36.30193       88.35130
O         44.18007       37.38910       87.18131
H         44.99079       36.24411       89.41041
H         43.89619       34.10917       87.80789
H         43.04943       35.87239       86.34400
H         43.60691       37.96740       86.61292
H         41.83750       35.34149       88.46280
H         42.77163       36.60680       89.34519
H         41.66224       37.07733       88.01742
N         46.48485       35.75795       86.33033
C         47.43621       35.68920       85.21451
C         48.86828       35.57432       85.73410
O         49.06169       35.74188       86.93047
C         47.26627       36.95193       84.30568
C         47.44968       38.27131       85.11297
C         45.89787       36.90533       83.60333
C         47.49466       39.53178       84.25344
H         46.54370       36.55936       86.97279
H         47.24164       34.77202       84.61930
H         48.04220       36.92876       83.51451
H         48.41073       38.22864       85.66827
H         46.62665       38.40081       85.84657
H         45.78142       37.74624       82.89114
H         45.80673       35.96703       83.01561
H         45.06885       36.94425       84.34151
H         46.54229       39.68921       83.70991
H         47.65489       40.41147       84.91343
H         48.33499       39.47259       83.53212
N         49.94826       35.26408       84.94661
C         49.93289       34.89827       83.52953
C         50.85590       35.80903       82.72493
O         52.00607       35.98814       83.09913
C         50.41141       33.44228       83.37109
C         49.50097       32.47416       84.07587
O         49.98240       31.68660       85.05603
O         48.32635       32.38608       83.75400
H         50.86747       35.21505       85.41481
H         48.91238       34.93383       83.09891
H         51.44369       33.33834       83.77077
H         50.42856       33.17322       82.29125
N         50.42256       36.35737       81.55530
C         51.23826       37.20878       80.68389
C         51.51175       38.54277       81.36336
O         50.56579       39.10789       81.89297
C         50.48402       37.39345       79.33950
C         51.19477       38.25139       78.31495
C         51.87778       37.66014       77.23569
C         51.14655       39.65404       78.40419
C         52.50931       38.45803       76.27521
C         51.76817       40.44737       77.43446
C         52.45171       39.85026       76.37285
H         49.46624       36.12110       81.24686
H         52.18535       36.68360       80.43748
H         49.45972       37.79860       79.49123
H         50.35896       36.37121       78.91670
H         51.92897       36.58289       77.13938
H         50.61191       40.13478       79.21277
H         53.03918       37.99731       75.45107
H         51.71647       41.52626       77.50394
H         52.93275       40.46630       75.62358
N         52.73954       39.16397       81.34525
C         53.89913       38.75490       80.56199
C         54.92509       37.94033       81.34540
O         55.92995       37.57657       80.75169
C         54.51524       40.10851       80.18313
C         54.33799       40.88648       81.47943
C         52.90680       40.51511       81.85448
H         53.62551       38.20224       79.64007
H         55.55438       40.06828       79.79160
H         53.87307       40.59094       79.41198
H         55.03215       40.45673       82.23585
H         54.52282       41.97976       81.41778
H         52.72977       40.59912       82.94821
H         52.19946       41.17622       81.30522
N         54.77490       37.64391       82.66948
C         55.78731       36.90507       83.42416
C         57.12057       37.65967       83.42650
O         57.13807       38.81241       83.83301
C         55.29943       36.60382       84.86421
C         55.10619       37.83324       85.77302
C         54.53036       37.42908       87.09911
O         53.42709       36.90939       87.15731
O         55.22183       37.65173       88.23324
H         53.92102       37.95165       83.15337
H         55.90087       35.91202       82.94379
H         56.03043       35.92202       85.35361
H         54.33438       36.05765       84.77762
H         54.42153       38.57004       85.30514
H         56.08492       38.32283       85.95602
N         58.29066       37.11291       82.98579
C         58.41930       35.76263       82.48473
H         59.47782       35.56306       82.21133
H         58.11864       35.03488       83.26784
H         57.79544       35.62940       81.57672
H         59.14653       37.68927       83.02063
Ca        52.66274       26.27278       91.05541
O         55.46127       27.56984       90.61019
H         55.82601       26.65464       90.70900
H         55.33531       27.88844       91.53917
O         53.35441       29.58245       89.22419
H         53.74141       30.05551       90.00335
H         53.92646       29.84849       88.46231
O         53.73742       26.69748       87.83747
H         54.05042       25.93767       87.28535
H         54.04109       27.50171       87.34638
O         50.73151       27.70560       88.37594
H         49.74696       27.65642       88.28732
H         51.00478       28.38590       87.71033

Ca 1.0



