%chk=apoCaM-CA-Ng.loop3.water6.frame1154.chk
%nprocshared=20
%mem=10GB
%nosave
#b3lyp/svp scf=(tight,noincore,xqc) Test 
#IOP(5/87=12) Density=Current Pop=(MK,readradii) iop(6/33=2) iop(6/42=6)

apoCaM-CA-Ng.loop3.water6.frame1154 

   0  1 
C         61.61192       50.59073       82.26828
C         60.70902       49.46414       81.85884
O         61.08860       48.67460       81.00865
H         62.56761       50.56074       81.70203
H         61.11127       51.56298       82.08034
H         61.84033       50.50315       83.35220
N         59.50049       49.31165       82.46618
C         58.57780       48.21369       82.18288
C         57.16480       48.68522       81.83049
O         56.30598       47.83157       81.66032
C         58.58500       47.21566       83.36343
C         58.19236       47.75273       84.71427
O         58.18984       46.91773       85.77008
O         57.89036       48.92269       84.87864
H         59.25537       49.98388       83.20747
H         58.93090       47.62312       81.30761
H         59.61426       46.80514       83.45372
H         57.90954       46.36950       83.12121
N         56.85553       50.00428       81.63609
C         55.53399       50.49577       81.22853
C         55.06277       49.79815       79.95315
O         53.91962       49.36665       79.87657
C         54.49807       50.33772       82.36603
C         54.91814       51.06067       83.65334
C         53.87413       50.92648       84.77915
C         53.58308       49.48355       85.24366
N         54.78168       48.80299       85.73205
H         57.59975       50.71166       81.71838
H         55.63686       51.58127       81.00260
H         54.36427       49.25677       82.57247
H         53.52259       50.75623       82.03188
H         55.04423       52.14241       83.42874
H         55.89699       50.67694       84.00712
H         52.91778       51.38133       84.44073
H         54.23524       51.51035       85.65320
H         53.12784       48.88825       84.42346
H         52.83546       49.53152       86.06533
H         54.51347       47.87308       86.12695
H         55.43700       48.63515       84.93882
H         55.24655       49.36906       86.47881
N         55.94735       49.56645       78.94701
C         55.64496       48.75384       77.77370
C         56.31432       47.40606       77.96415
O         57.51267       47.35704       78.19458
C         56.04836       49.45845       76.45719
C         57.47834       49.92245       76.39667
O         57.86287       50.82111       77.12688
O         58.33708       49.38582       75.51106
H         56.92099       49.86611       79.09330
H         54.55159       48.56661       77.69275
H         55.40143       50.34845       76.30181
H         55.85496       48.75046       75.62179
N         55.57786       46.25809       77.93422
C         56.13091       44.96446       78.29516
C         56.36112       44.94122       79.79402
O         55.39098       45.15684       80.50717
H         54.57821       46.30015       77.68364
H         57.02956       44.76084       77.67962
H         55.38404       44.17206       78.07019
N         57.57114       44.73396       80.39151
C         58.81546       44.41240       79.70013
C         59.98935       44.52002       80.68431
O         59.88458       43.96853       81.77165
C         58.75654       42.97639       79.13547
C         59.90524       42.72888       78.19018
N         60.87051       41.82760       78.47949
O         59.96344       43.36052       77.14476
H         57.59093       44.82237       81.41884
H         58.94236       45.13166       78.86925
H         57.82458       42.79900       78.56289
H         58.76104       42.25432       79.98139
H         60.84883       41.29178       79.35838
H         61.65394       41.67915       77.82568
N         61.14586       45.19040       80.41017
C         61.44955       45.75885       79.11161
C         62.80567       46.41158       79.08991
O         63.79735       45.74783       79.35928
H         61.85954       45.24687       81.15487
H         60.67323       46.49710       78.83735
H         61.46691       44.95127       78.35588
N         62.91402       47.72790       78.76408
C         64.17913       48.43943       78.69138
C         63.91717       49.92123       78.47648
O         63.14281       50.26520       77.59385
C         65.05340       47.91113       77.53032
C         66.46921       48.41744       77.66721
C         67.01767       49.32313       76.74578
C         67.25902       47.96596       78.73964
C         68.33449       49.77347       76.90229
C         68.57345       48.40855       78.88840
C         69.11677       49.31585       77.96994
O         70.38655       49.74932       78.10207
H         62.04938       48.24683       78.57488
H         64.70804       48.28913       79.65763
H         64.59550       48.21495       76.56273
H         65.11165       46.80335       77.52584
H         66.42728       49.68657       75.91439
H         66.85801       47.26025       79.45714
H         68.74924       50.47669       76.19163
H         69.16733       48.04296       79.71699
H         70.96018       49.44543       78.82059
N         64.55369       50.85502       79.23584
C         64.32871       52.29544       79.09766
C         64.46845       52.78471       77.65776
O         65.12973       52.14099       76.85403
C         65.20117       53.09810       80.12070
C         66.73834       52.82224       80.07957
C         64.91499       54.60891       80.07218
C         67.49256       53.24404       78.81745
H         65.20937       50.51187       79.94994
H         63.25925       52.46005       79.36197
H         64.87129       52.75062       81.12544
H         66.94714       51.74703       80.24949
H         67.19939       53.36366       80.93374
H         65.22900       55.05294       79.10546
H         63.83099       54.80041       80.21643
H         65.46644       55.12840       80.88380
H         68.57345       53.02983       78.95870
H         67.17252       52.66391       77.93724
H         67.37945       54.32892       78.62175
N         63.74541       53.86707       77.23932
C         63.74997       54.33490       75.85582
C         62.63482       55.33666       75.56539
O         61.96592       55.81091       76.47356
C         65.11299       54.96988       75.51391
O         65.33394       56.07998       76.34503
H         63.12539       54.32364       77.92362
H         63.55292       53.45720       75.20060
H         65.11764       55.28225       74.44474
H         65.93483       54.23850       75.65961
H         65.99809       56.65668       75.88587
N         62.38798       55.68842       74.27120
C         61.38969       56.65316       73.82653
C         61.70938       58.04131       74.34161
O         60.83092       58.72292       74.85298
C         59.96170       56.19682       74.17031
H         62.95817       55.24840       73.53209
H         61.46033       56.71005       72.71756
H         59.21952       56.91140       73.75443
H         59.76596       55.20022       73.72764
H         59.80579       56.13653       75.26733
N         62.98253       58.51978       74.23277
C         63.39406       59.85577       74.63567
C         62.96181       60.16414       76.05698
O         62.24526       61.13187       76.27915
C         62.88605       60.88966       73.62428
H         63.71361       57.89759       73.85522
H         64.50576       59.90517       74.59487
H         63.26853       61.89827       73.89286
H         63.26778       60.63613       72.61202
H         61.77754       60.91591       73.59533
N         63.39542       59.38002       77.07933
C         63.08348       59.65024       78.47552
C         64.34510       60.16530       79.13523
O         64.31442       61.24898       79.70144
C         62.52150       58.38513       79.16196
C         61.94654       58.67422       80.56400
C         60.71578       59.54161       80.49615
O         59.72630       59.15673       79.89213
O         60.69417       60.74064       81.10850
H         64.02050       58.59057       76.85609
H         62.30545       60.44193       78.54874
H         63.32465       57.62031       79.23774
H         61.70513       57.95158       78.54303
H         62.72018       59.15599       81.19979
H         61.65456       57.71644       81.04534
N         65.51662       59.47427       79.02266
C         66.78563       59.96529       79.51732
H         67.47132       60.12036       78.65600
H         66.68684       60.93018       80.05657
H         67.23262       59.21499       80.19985
H         65.53301       58.57785       78.51478
Ca        60.48079       50.10651       75.56915
O         63.19356       50.59730       74.41119
H         63.76320       50.47336       73.61215
H         63.83365       50.62127       75.16388
O         61.89549       47.41634       75.63827
H         61.11643       46.83129       75.46195
H         62.68267       46.85276       75.43214
O         59.70315       52.38607       73.94352
H         60.07219       52.84945       73.15059
H         58.76584       52.69860       74.00669
O         60.56344       52.44426       77.64798
H         60.87972       53.32834       77.95983
H         59.97253       52.12433       78.37499
O         60.70804       49.21887       72.81965
H         61.34790       49.59621       72.16556
H         60.98266       48.27330       72.92303
O         59.83321       49.18944       78.27194
H         59.37750       48.95044       79.11568
H         59.80320       48.36395       77.72529

Ca 1.0



