%chk=apoCaM-CA-Ng.loop2.water4.frame1136.chk
%nprocshared=20
%mem=10GB
%nosave
#b3lyp/svp scf=(tight,noincore,xqc) Test 
#IOP(5/87=12) Density=Current Pop=(MK,readradii) iop(6/33=2) iop(6/42=6)

apoCaM-CA-Ng.loop2.water4.frame1136 

   -2  1 
C        100.47501       44.53376       71.47060
C        100.60378       44.95707       72.91507
O         99.68731       44.64313       73.66039
H         99.55668       44.98663       71.04169
H        101.31112       44.79831       70.80632
H        100.37218       43.42876       71.43130
N        101.65846       45.65107       73.44286
C        102.83788       46.13874       72.73083
C        102.89685       47.66153       72.79625
O        101.97262       48.27215       73.31723
C        104.09174       45.40113       73.25169
C        104.38087       45.57706       74.71469
O        104.34697       44.61303       75.46292
O        104.74416       46.77542       75.20007
H        101.61941       45.85973       74.45399
H        102.79973       45.90566       71.65625
H        104.99085       45.70564       72.67716
H        103.93335       44.31718       73.05289
N        103.93276       48.34399       72.22009
C        103.99540       49.79818       72.04736
C        103.98953       50.63067       73.32931
O        104.03226       51.84756       73.20630
C        102.84997       50.25116       71.12668
H        104.70079       47.80046       71.79996
H        104.94483       50.03376       71.51661
H        101.85919       50.08936       71.59947
H        102.94509       51.33190       70.88792
H        102.88598       49.68513       70.17180
N        103.91959       50.08249       74.57586
C        103.79184       50.87837       75.79493
C        104.93373       50.60625       76.75933
O        105.82806       49.83341       76.44277
C        102.39465       50.62518       76.42362
C        102.10906       49.22577       76.90873
O        102.94239       48.34005       76.83916
O        100.90363       48.95145       77.44149
H        103.91482       49.06384       74.67717
H        103.82680       51.96479       75.56243
H        101.62865       50.88540       75.66205
H        102.24058       51.31010       77.28196
N        104.94022       51.20204       77.98444
C        105.94106       50.95159       79.00021
C        105.35864       50.00210       80.00630
O        105.10835       48.86299       79.64035
H        104.15467       51.81116       78.25357
H        106.23923       51.92213       79.45280
H        106.85888       50.48253       78.58341
N        105.06856       50.39657       81.27643
C        104.49653       49.48292       82.26154
C        102.99026       49.63055       82.30523
O        102.46840       50.67215       81.92938
C        105.13819       49.71037       83.63605
C        106.62842       49.48456       83.57138
N        107.49294       50.50623       83.77118
O        107.05895       48.36839       83.32305
H        105.19954       51.38718       81.53421
H        104.69965       48.43165       81.95430
H        104.70113       49.02113       84.39108
H        104.91960       50.75264       83.95556
H        107.15127       51.45867       83.96493
H        108.50987       50.34847       83.71263
N        102.22210       48.54330       82.59900
C        100.78378       48.52782       82.40344
C        100.00343       49.15441       83.53966
O        100.60344       49.55753       84.52566
H        102.68763       47.65002       82.82248
H        100.45289       47.46923       82.34534
H        100.55805       49.01215       81.43005
N         98.63694       49.23322       83.51516
C         97.80662       48.85232       82.37049
C         96.95036       50.02307       81.91623
O         96.89384       51.04401       82.58923
C         96.90751       47.63754       82.70963
C         97.73166       46.38673       83.01644
O         96.08048       47.92344       83.80901
H         98.15772       49.60012       84.35325
H         98.43055       48.56793       81.50258
H         96.28449       47.37404       81.82156
H         95.24855       48.32971       83.44989
H         98.36749       46.12414       82.14378
H         98.37789       46.54492       83.90488
H         97.05247       45.53114       83.21857
N         96.25512       49.92391       80.74924
C         95.33179       50.93950       80.24548
C         93.95959       50.30730       80.01246
O         93.89501       49.09289       79.87086
C         95.88032       51.59690       78.93729
C         96.29635       50.53469       77.88033
C         97.04374       52.54202       79.28435
C         96.72438       51.11335       76.53047
H         96.38042       49.06561       80.19128
H         95.21198       51.73394       81.00321
H         95.08093       52.22926       78.50272
H         95.43848       49.85545       77.69026
H         97.14640       49.93164       78.26427
H         97.89949       51.98222       79.71542
H         97.38504       53.10367       78.39192
H         96.70421       53.30194       80.02149
H         95.89825       51.68478       76.06890
H         97.61653       51.76354       76.62640
H         96.99004       50.28064       75.84575
N         92.79706       51.02397       79.93458
C         92.64926       52.44664       80.25175
C         91.41130       53.04916       79.57686
O         90.68108       52.34116       78.89750
C         92.61411       52.64973       81.79209
C         91.51233       51.88045       82.46980
O         91.50796       50.53349       82.44022
O         90.64250       52.47046       83.08961
H         91.93865       50.48395       79.74280
H         93.50551       53.01065       79.84285
H         92.50928       53.72976       82.02453
H         93.56488       52.32733       82.25580
N         91.12058       54.37685       79.73560
C         89.94658       55.02636       79.15556
C         90.34074       56.39261       78.57341
O         91.01319       57.11975       79.29147
C         88.89327       55.19123       80.26967
C         87.51878       55.49769       79.71957
C         86.86444       56.69898       80.03255
C         86.86453       54.55456       78.90072
C         85.58359       56.95462       79.52818
C         85.58771       54.81480       78.39898
C         84.94702       56.01442       78.71215
H         91.72028       54.93954       80.35484
H         89.49715       54.36338       78.40582
H         89.23745       55.95866       80.99706
H         88.79469       54.23143       80.82380
H         87.34244       57.43525       80.66532
H         87.33860       53.61280       78.65310
H         85.08155       57.88126       79.77204
H         85.09444       54.08349       77.77074
H         83.95575       56.21248       78.32519
N         89.95734       56.86527       77.33794
C         89.01818       56.23927       76.42190
C         89.49044       54.90200       75.91416
O         88.80132       53.91506       76.13151
C         88.86305       57.25878       75.27502
C         89.10466       58.56923       75.99259
C         90.28545       58.20435       76.88436
H         88.04624       56.14965       76.95390
H         89.69208       57.17251       74.54110
H         87.90816       57.18446       74.71268
H         89.28533       59.44197       75.32804
H         88.22424       58.77915       76.64025
H         91.22484       58.15100       76.28907
H         90.39146       58.94927       77.70221
N         90.65261       54.79655       75.20772
C         91.15126       53.52964       74.71586
C         90.84694       53.44884       73.22773
O         91.41339       54.24696       72.49364
C         92.67625       53.37014       74.94797
C         93.14884       53.44708       76.41358
C         93.28157       54.83199       77.00275
O         93.06056       55.83417       76.34555
O         93.74597       54.96972       78.25779
H         91.16539       55.64884       74.94868
H         90.68069       52.71122       75.28105
H         93.26406       54.09538       74.34361
H         92.92890       52.35105       74.57934
H         94.17095       53.03071       76.44874
H         92.50110       52.80475       77.04160
N         89.97533       52.56025       72.66030
C         89.13995       51.58998       73.34518
H         88.07858       51.78400       73.08272
H         89.40804       50.56912       73.00488
H         89.19674       51.61251       74.44308
H         89.87195       52.58728       71.63407
Ca       105.35228       46.92905       77.37010
O        106.92007       46.69056       80.21714
H        107.83778       46.34006       80.09944
H        107.02109       47.42937       80.86758
O        108.18496       47.62754       77.13012
H        109.05232       47.15520       77.06574
H        108.41667       48.54003       77.43627
O        103.47095       45.32160       79.12480
H        103.94773       44.48856       78.88127
H        102.70816       45.36377       78.49482
O        106.73599       44.27344       77.89879
H        107.67145       44.28404       78.22254
H        106.81311       44.14542       76.92001

Ca 1.0



