%chk=apoCaM-CA-Ng.loop1.water3.frame118.chk
%nprocshared=20
%mem=10GB
%nosave
#b3lyp/svp scf=(tight,noincore,xqc) Test 
#IOP(5/87=12) Density=Current Pop=(MK,readradii) iop(6/33=2) iop(6/42=6)

apoCaM-CA-Ng.loop1.water3.frame118 

   0  1 
C         64.89952       63.12945       11.13466
C         64.51166       62.08061       12.13552
O         64.18030       62.41084       13.26473
H         65.94479       62.95122       10.80251
H         64.22890       63.06907       10.25100
H         64.82975       64.14655       11.57256
N         64.53723       60.77432       11.76587
C         64.21346       59.65781       12.64853
C         65.40299       58.71353       12.82986
O         65.23236       57.69619       13.48740
C         62.91805       58.93562       12.17959
C         62.83006       58.47560       10.74760
O         61.72596       57.82320       10.33749
O         63.70714       58.72056        9.93789
H         64.82352       60.56929       10.79818
H         63.97846       60.01938       13.67230
H         62.06382       59.63000       12.32974
H         62.74747       58.05757       12.83929
N         66.64974       59.01085       12.34656
C         67.82530       58.16686       12.54761
C         68.87571       58.90540       13.37067
O         69.21042       60.01812       12.98622
C         68.49223       57.80353       11.19967
C         67.78312       56.73151       10.36425
C         66.47558       57.16827        9.70369
C         65.93497       56.01787        8.83683
N         64.72387       56.39766        8.11458
H         66.80044       59.89398       11.83858
H         67.55003       57.23111       13.04807
H         69.47751       57.34869       11.43911
H         68.69850       58.71418       10.59435
H         67.61377       55.83198       10.99595
H         68.48591       56.45160        9.54858
H         66.66956       58.05835        9.06497
H         65.73064       57.42493       10.47681
H         65.71615       55.14084        9.48632
H         66.70981       55.72134        8.09571
H         64.91407       57.22064        7.49625
H         64.41621       55.59335        7.52164
H         63.95528       56.61422        8.78511
N         69.54647       58.36572       14.44193
C         69.36942       57.05062       15.06841
C         69.39528       55.88929       14.06998
O         68.42104       55.14995       14.00393
C         68.08397       57.01611       15.92215
C         68.00662       58.02370       17.03051
O         66.90551       58.00023       17.80139
O         68.88308       58.84965       17.23026
H         70.30595       58.94155       14.84122
H         70.21078       56.88607       15.77290
H         68.00797       56.01513       16.39727
H         67.19565       57.16835       15.27937
N         70.43548       55.63593       13.23292
C         71.68466       56.37704       13.22612
C         72.54242       56.03274       12.01937
O         72.10357       55.28748       11.15413
H         70.30614       54.85672       12.56963
H         72.21745       56.17202       14.17534
H         71.48239       57.46219       13.14577
N         73.76998       56.58664       11.82790
C         74.45352       57.43431       12.80079
C         74.94793       56.61416       13.99252
O         74.78361       55.40104       14.01200
C         75.60616       58.20400       12.10605
C         76.61777       57.31506       11.43115
O         76.78937       57.39581       10.22419
O         77.34209       56.43383       12.14590
H         74.23547       56.38588       10.92895
H         73.75093       58.21245       13.17076
H         76.13128       58.86001       12.82990
H         75.15085       58.86951       11.33863
N         75.59778       57.22901       15.02034
C         76.17385       56.52126       16.15174
C         75.17799       56.02132       17.18079
O         75.64352       55.48098       18.17451
H         75.76417       58.24414       14.96810
H         76.83619       57.22948       16.69522
H         76.81252       55.68666       15.78607
N         73.82337       56.16721       17.05484
C         72.88507       55.74649       18.09853
C         72.07349       54.54537       17.64141
O         72.08335       54.21628       16.46285
C         71.98724       56.93805       18.51196
C         72.80401       58.08742       19.10696
O         71.03519       56.52911       19.46107
H         73.43243       56.59422       16.20419
H         73.44482       55.39823       18.99440
H         71.48141       57.31532       17.59371
H         70.16005       56.90687       19.18243
H         73.56026       58.45584       18.38244
H         72.12860       58.93136       19.36373
H         73.32055       57.75251       20.03193
N         71.44823       53.76568       18.57596
C         70.79640       52.49341       18.26771
C         69.36088       52.40488       18.78737
O         68.74170       51.37552       18.55465
C         71.65084       51.30938       18.82081
C         71.78807       51.35058       20.36774
C         73.02651       51.28623       18.12593
C         72.46166       50.10747       20.95197
H         71.52968       54.03733       19.56683
H         70.73104       52.35698       17.16537
H         71.12869       50.36653       18.54287
H         70.77596       51.40890       20.82183
H         72.36350       52.24562       20.68578
H         73.61955       52.18929       18.38390
H         73.60836       50.38725       18.40975
H         72.89565       51.24953       17.02332
H         72.48156       50.18663       22.05938
H         71.89183       49.19590       20.67290
H         73.50961       50.00912       20.60509
N         68.75487       53.41809       19.47513
C         67.37807       53.34327       19.96677
C         66.52416       54.29949       19.16202
O         67.00017       55.36884       18.80495
C         67.32407       53.58346       21.48853
C         65.89907       53.42163       22.03602
O         67.81532       54.85901       21.79875
H         69.26422       54.29872       19.63508
H         66.96578       52.32258       19.80500
H         67.97118       52.80608       21.95987
H         68.08472       54.83740       22.75433
H         65.90115       53.54327       23.13938
H         65.21695       54.18172       21.59970
H         65.50830       52.40857       21.79832
N         65.29728       53.90616       18.71967
C         64.57898       54.59658       17.65713
C         63.20968       55.08879       18.09163
O         62.57089       54.46618       18.93067
C         64.42717       53.59695       16.48096
C         65.79319       53.10692       15.97882
O         63.73590       54.19644       15.41764
H         64.90670       53.01413       19.06175
H         65.15473       55.47593       17.29240
H         63.84758       52.71698       16.85513
H         63.35348       53.45511       14.87776
H         66.35751       52.59357       16.78641
H         65.65351       52.37828       15.15312
H         66.39453       53.96289       15.60798
N         62.64091       56.12357       17.40407
C         61.24129       56.51915       17.52154
C         61.04067       58.02796       17.66210
O         59.89130       58.44966       17.64618
C         60.48575       55.97266       16.28664
C         60.98333       56.53192       14.93641
C         60.23225       55.94898       13.72839
C         60.46328       54.43735       13.54705
N         59.79909       53.94618       12.34141
H         63.20115       56.56941       16.66307
H         60.76802       56.03440       18.40427
H         59.40009       56.19197       16.39029
H         60.60841       54.87033       16.30409
H         62.06297       56.32396       14.79403
H         60.84081       57.63408       14.93358
H         60.60828       56.46713       12.81945
H         59.14540       56.16006       13.82467
H         60.06969       53.87461       14.41928
H         61.55407       54.24007       13.46271
H         59.97638       52.91955       12.24914
H         58.76807       54.10743       12.40870
H         60.18107       54.43178       11.49761
N         62.07529       58.90723       17.82369
C         61.84929       60.35023       17.90900
C         61.49036       60.89462       16.54039
O         62.27919       60.74887       15.61624
C         63.07665       61.10824       18.46422
C         63.38752       60.68167       19.90745
C         64.42674       61.55439       20.55292
O         65.66213       61.07052       20.79815
O         64.16566       62.70643       20.85631
H         63.03674       58.54931       17.91343
H         61.02281       60.55134       18.62744
H         62.83540       62.19417       18.46218
H         63.97123       60.94649       17.82074
H         63.72416       59.62444       19.90188
H         62.47323       60.73984       20.53942
N         60.31667       61.55421       16.34076
C         59.95471       62.10699       15.05277
H         58.96969       62.61608       15.12203
H         60.71428       62.85166       14.73062
H         59.88604       61.29740       14.29557
H         59.66304       61.68243       17.12768
Ca        66.34105       59.56867       19.28731
O         67.81454       57.65313       21.17715
H         68.00566       57.23471       20.30066
H         66.88029       57.39014       21.37585
O         67.19934       61.92424       17.40529
H         66.44079       62.40818       17.81945
H         66.77250       61.23388       16.83781
O         68.09023       62.63416       20.67852
H         68.51911       63.27227       21.30309
H         67.37358       63.16021       20.24146

Ca 1.0



