%chk=apoCaM-CA-Ng.loop1.water2.frame1054.chk
%nprocshared=20
%mem=10GB
%nosave
#b3lyp/svp scf=(tight,noincore,xqc) Test 
#IOP(5/87=12) Density=Current Pop=(MK,readradii) iop(6/33=2) iop(6/42=6)

apoCaM-CA-Ng.loop1.water2.frame1054 

   0  1 
C         20.25971       45.61614       53.07378
C         19.25665       45.18081       54.09500
O         18.34147       45.93980       54.38471
H         21.27412       45.61136       53.52568
H         20.23337       44.92216       52.20982
H         20.03536       46.64600       52.72054
N         19.39637       43.97582       54.72152
C         18.49021       43.52959       55.77299
C         19.16048       43.66388       57.12167
O         19.16224       42.73406       57.91759
C         17.91612       42.12378       55.48079
C         18.93043       41.00362       55.44119
O         18.55158       39.86551       55.21760
O         20.24110       41.22498       55.66380
H         20.21453       43.39645       54.48564
H         17.62368       44.21666       55.82617
H         17.38716       42.15649       54.50434
H         17.16680       41.87852       56.26604
N         19.72237       44.85839       57.45304
C         20.25371       45.14873       58.77204
C         19.13684       45.06325       59.80670
O         19.32528       44.32716       60.76477
C         20.99330       46.50751       58.82499
C         22.19800       46.52900       57.85916
C         23.05105       47.79344       58.03802
C         24.21238       47.89121       57.02830
N         25.16981       46.78880       57.14935
H         19.74109       45.60373       56.74271
H         21.02802       44.38694       59.02244
H         21.37694       46.63823       59.86126
H         20.31724       47.35821       58.60066
H         21.83890       46.47882       56.80929
H         22.83186       45.64040       58.06236
H         23.45947       47.82076       59.07218
H         22.40484       48.68628       57.89479
H         24.74723       48.84947       57.21246
H         23.80910       47.92063       55.99196
H         25.96735       46.96087       56.49492
H         25.54159       46.73463       58.12515
H         24.72751       45.88128       56.88131
N         17.92162       45.69266       59.70538
C         17.45650       46.54967       58.61018
C         16.35149       45.84908       57.81914
O         15.97866       44.73805       58.16927
C         17.04978       47.92694       59.16450
C         15.99365       47.84882       60.22564
O         14.87042       47.45059       59.96394
O         16.29903       48.21773       61.48236
H         17.24019       45.49904       60.45673
H         18.26080       46.74640       57.88838
H         16.70695       48.59891       58.35049
H         17.95773       48.38283       59.61731
N         15.85995       46.39454       56.66665
C         14.98534       45.64983       55.76558
C         13.52151       45.68449       56.13363
O         13.13175       46.40529       57.04170
H         16.25376       47.28768       56.33464
H         15.33508       44.59802       55.69832
H         15.06047       46.08268       54.74503
N         12.64574       44.90274       55.43193
C         11.19547       44.90261       55.62618
C         10.45682       44.92713       54.29231
O         11.05980       44.60660       53.27633
C         10.79611       43.65165       56.44318
C         11.26837       43.87225       57.83998
O         10.78761       44.94755       58.49008
O         12.13636       43.17416       58.33766
H         13.04013       44.23908       54.74629
H         10.90721       45.81856       56.17849
H         11.23767       42.73757       55.98825
H          9.70146       43.50196       56.49289
N          9.13637       45.26931       54.18354
C          8.31608       45.79291       55.26975
C          8.74407       47.18583       55.67614
O          9.63813       47.75374       55.06417
H          8.68538       45.18483       53.25945
H          8.32798       45.11064       56.13784
H          7.26157       45.87025       54.92756
N          8.11421       47.81065       56.71214
C          8.44400       49.17622       57.12092
C          9.89605       49.31352       57.54876
O         10.53826       48.31138       57.83055
C          7.49998       49.67829       58.24171
C          7.63004       48.85622       59.53604
O          6.17511       49.62352       57.78075
H          7.35464       47.30313       57.18797
H          8.29515       49.82113       56.22550
H          7.76805       50.73864       58.46466
H          5.64876       50.25144       58.34197
H          8.65867       48.93836       59.94462
H          6.91817       49.23532       60.29699
H          7.39563       47.78549       59.37240
N         10.48136       50.54919       57.55631
C         11.88183       50.82515       57.87491
C         12.13621       50.61949       59.35949
O         11.95122       49.52158       59.86554
C         12.86919       49.99630       56.99366
C         12.55251       50.17014       55.48483
C         14.32940       50.40171       57.29116
C         13.24221       49.12098       54.60994
H          9.90786       51.35477       57.26058
H         12.06547       51.89814       57.63892
H         12.75457       48.92839       57.25482
H         12.82300       51.19652       55.15297
H         11.46672       50.03242       55.30338
H         15.04893       49.79260       56.71011
H         14.49202       51.47353       57.04387
H         14.57438       50.25009       58.36294
H         12.89040       48.10963       54.90209
H         12.96480       49.28243       53.54762
H         14.34553       49.16091       54.69124
N         12.61100       51.65255       60.11216
C         12.94361       51.51533       61.52741
C         11.72220       51.32768       62.42440
O         11.91833       51.11039       63.61305
C         13.77979       52.73410       62.01595
C         13.00102       54.05922       62.00256
O         14.92519       52.88007       61.21594
H         12.81426       52.54256       59.63494
H         13.59507       50.61933       61.63041
H         14.09427       52.56463       63.07252
H         15.54337       52.14204       61.45849
H         13.65382       54.87704       62.37562
H         12.66631       54.33069       60.98076
H         12.11211       54.00240       62.66493
N         10.44258       51.45394       61.96079
C          9.28440       51.39975       62.84828
C          9.14596       50.03264       63.49574
O          8.87483       49.06228       62.80364
C          7.98910       51.77033       62.08158
C          6.73780       51.70598       62.97089
O          8.11966       53.06815       61.56139
H         10.28399       51.66787       60.96578
H          9.42759       52.17060       63.63875
H          7.87133       51.04926       61.24662
H          7.45876       53.15073       60.82450
H          6.82875       52.41121       63.82325
H          5.83978       51.97360       62.37482
H          6.58063       50.67964       63.36520
N          9.28611       49.90866       64.84710
C          9.02429       48.69344       65.60694
C          9.87486       47.54351       65.09882
O          9.33709       46.55435       64.61871
C          7.50114       48.39845       65.58769
C          7.02135       47.41230       66.67511
C          7.18662       47.99971       68.09165
C          6.54903       47.12084       69.17197
N          6.70881       47.73758       70.49070
H          9.56233       50.74113       65.38989
H          9.31444       48.90866       66.65254
H          7.20477       48.02979       64.58151
H          6.94877       49.34895       65.75771
H          7.54153       46.43417       66.59066
H          5.93602       47.24174       66.50251
H          6.69530       48.99712       68.12518
H          8.25968       48.11983       68.34093
H          7.02848       46.11738       69.17168
H          5.46437       46.99670       68.95698
H          6.25016       48.67815       70.50700
H          6.25926       47.13189       71.21409
H          7.72434       47.84211       70.71949
N         11.23294       47.62955       65.15955
C         12.12260       46.62852       64.58433
C         12.99130       47.29072       63.52075
O         12.74143       47.00786       62.36304
C         12.89339       45.86441       65.67497
C         11.94220       45.00987       66.52702
C         12.68787       44.27923       67.60493
O         13.56428       43.47968       67.31665
O         12.38328       44.49597       68.89863
H         11.64362       48.45729       65.61088
H         11.52450       45.85718       64.04527
H         13.41616       46.56618       66.34967
H         13.63417       45.19052       65.18967
H         11.42468       44.26607       65.88207
H         11.17487       45.66084       66.99848
N         13.98802       48.19597       63.74361
C         14.52293       48.59051       65.02461
H         15.31795       49.35071       64.87027
H         13.74643       49.03435       65.67130
H         15.01469       47.72392       65.50865
H         14.42973       48.62210       62.91842
Ca        11.97159       46.04224       60.01970
O         14.29805       44.25633       60.65427
H         13.44801       43.75352       60.59459
H         14.25786       44.88715       59.89436
O          9.64211       46.33217       61.67621
H          8.87870       45.92262       61.19835
H          9.81481       47.17679       61.18956

Ca 1.0



