%chk=apoCaM-CA-Ng.loop3.water3.frame816.chk
%nprocshared=20
%mem=10GB
%nosave
#b3lyp/svp scf=(tight,noincore,xqc) Test 
#IOP(5/87=12) Density=Current Pop=(MK,readradii) iop(6/33=2) iop(6/42=6)

apoCaM-CA-Ng.loop3.water3.frame816 

   0  1 
C         72.04453        4.67290       95.46245
C         71.97915        6.00628       96.15156
O         72.09382        6.05154       97.36719
H         73.02666        4.19990       95.67887
H         71.23136        4.01347       95.82560
H         71.95459        4.77881       94.35994
N         71.84503        7.14773       95.42273
C         71.93135        8.48566       96.00969
C         70.70519        8.78618       96.89253
O         69.72991        8.05090       96.82731
C         72.10497        9.50511       94.83868
C         72.91189       10.75243       95.11997
O         73.90254       10.98864       94.44789
O         72.55726       11.63814       96.05516
H         71.77789        7.04983       94.39737
H         72.85012        8.49839       96.62243
H         71.11146        9.73912       94.40443
H         72.68685        9.00758       94.03002
N         70.68071        9.87218       97.71731
C         69.50790       10.33328       98.47216
C         68.98944       11.64771       97.89073
O         67.78006       11.83209       97.87492
C         69.82146       10.50605       99.98161
C         69.52984        9.24649      100.82006
C         69.85021        9.49647      102.30680
C         69.30115        8.38462      103.21568
N         69.66650        8.62330      104.61394
H         71.53739       10.43196       97.78640
H         68.65196        9.62791       98.37355
H         69.13786       11.27834      100.40147
H         70.86012       10.87543      100.11955
H         70.09986        8.36621      100.45406
H         68.44141        9.03041      100.72071
H         69.38506       10.45118      102.63824
H         70.95250        9.58057      102.42403
H         69.69486        7.39516      102.89800
H         68.19041        8.36420      103.13042
H         70.70584        8.58136      104.72266
H         69.31827        9.55794      104.93010
H         69.23503        7.88460      105.21565
N         69.82603       12.58070       97.35545
C         69.38514       13.81329       96.71127
C         69.65478       13.80057       95.20157
O         69.36680       14.79629       94.55249
C         70.02505       15.01838       97.43435
C         71.53100       14.99618       97.46842
O         72.17897       15.05899       96.43957
O         72.17413       14.93306       98.64924
H         70.83293       12.41330       97.38084
H         68.28381       13.93511       96.80782
H         69.65897       15.01062       98.48390
H         69.68463       15.96544       96.96416
N         70.11879       12.68618       94.55910
C         70.25449       12.57912       93.11209
C         71.34792       13.41809       92.47917
O         71.44057       13.36641       91.25990
H         70.28415       11.82822       95.09696
H         69.27900       12.83993       92.64593
H         70.47407       11.52198       92.84846
N         72.20131       14.20971       93.19496
C         73.20456       15.06466       92.55989
C         74.61305       14.80626       93.07979
O         74.78691       14.19255       94.12346
C         72.86176       16.54452       92.83501
C         71.47965       16.92394       92.36549
N         71.15036       16.87066       91.05459
O         70.65022       17.29758       93.18161
H         72.11483       14.24290       94.21468
H         73.21370       14.89377       91.46130
H         73.59820       17.21183       92.33731
H         72.92736       16.72101       93.93289
H         71.83798       16.57156       90.34879
H         70.20475       17.13932       90.74385
N         75.67244       15.30922       92.38288
C         77.05779       15.33035       92.83118
C         77.62165       13.98811       93.24609
O         77.53293       13.02865       92.49374
H         75.48081       15.76374       91.47593
H         77.14566       16.04751       93.67473
H         77.68095       15.72915       92.00112
N         78.28854       13.88716       94.43542
C         78.90384       12.65921       94.93923
C         77.84858       11.62326       95.31329
O         76.66419       11.88506       95.17444
C         79.75320       12.97652       96.20184
C         80.98006       13.82052       95.95140
C         81.13876       15.05768       96.59912
C         82.00982       13.34705       95.11941
C         82.30984       15.80240       96.42427
C         83.17888       14.09437       94.94474
C         83.33649       15.31989       95.59973
O         84.47909       16.01765       95.43793
H         78.39487       14.74481       94.99941
H         79.56858       12.22552       94.16104
H         80.13856       12.04655       96.66381
H         79.09797       13.46348       96.94987
H         80.36575       15.43923       97.25435
H         81.91842       12.39029       94.62120
H         82.42322       16.74785       96.93979
H         83.96971       13.71294       94.31077
H         84.63768       16.85861       95.89021
N         78.23653       10.41763       95.82969
C         77.34614        9.36117       96.30180
C         76.49408        9.89439       97.49792
O         75.22829       10.32063       97.07929
C         76.52274        8.74958       95.11804
C         75.57701        7.59219       95.53073
C         77.44021        8.31328       93.96222
C         76.25960        6.29723       95.97510
H         79.24524       10.22503       95.91500
H         78.00953        8.56143       96.70008
H         75.87365        9.54817       94.71486
H         74.91728        7.34556       94.66996
H         74.92432        7.93573       96.34790
H         78.02475        9.17436       93.57644
H         78.15664        7.53362       94.29359
H         76.83279        7.91775       93.12042
H         76.93651        6.46078       96.83501
H         75.47788        5.56796       96.27764
H         76.83597        5.84940       95.14141
N         76.41293        8.93055       98.61320
C         75.59613        9.36275       99.76917
C         76.10303        8.75874      101.07899
O         75.56002        9.09684      102.12248
C         74.10994        8.96421       99.58615
O         73.96038        7.56729       99.54715
H         76.16857        7.96785       98.30319
H         75.67640       10.46770       99.87250
H         73.66188        9.42839       98.68455
H         73.50712        9.34430      100.43745
H         74.04497        7.28800       98.59930
N         77.10757        7.83526      101.10765
C         77.56116        7.17870      102.33517
C         78.27818        8.14595      103.27622
O         78.62247        9.23045      102.82655
C         78.53713        6.06623      101.93563
H         77.53125        7.53876      100.21672
H         76.67769        6.72727      102.82736
H         78.92456        5.53176      102.80288
H         78.02778        5.33363      101.27426
H         79.40964        6.49305      101.39531
N         78.61821        7.84691      104.57319
C         78.15810        6.69697      105.36222
C         78.99107        6.56603      106.63832
O         79.07905        7.54939      107.36191
C         76.69559        6.90879      105.77980
H         79.20079        8.54641      105.06134
H         78.21395        5.76590      104.78644
H         76.34857        6.04682      106.39017
H         76.59468        7.83429      106.38794
H         76.02379        7.00174      104.90725
N         79.61089        5.41435      107.04525
C         79.56688        4.11502      106.37618
C         80.26214        4.15991      105.03431
O         79.67367        3.71700      104.05947
C         80.21090        3.03358      107.27680
C         80.07912        1.62010      106.68155
C         80.60580        0.58320      107.63166
O         80.04301        0.43287      108.84645
O         81.53139       -0.14106      107.30235
H         80.11948        5.46225      107.94350
H         78.50255        3.81387      106.24553
H         79.67994        3.04830      108.25465
H         81.28375        3.26525      107.45900
H         80.63681        1.56275      105.72126
H         79.00959        1.39359      106.48138
N         81.51892        4.67100      104.91425
C         82.21905        4.77254      103.64911
H         83.17308        4.20963      103.70709
H         81.62446        4.37344      102.80010
H         82.44157        5.84042      103.44068
H         81.99774        5.03108      105.75321
Ca        75.07402       12.57878       97.38038
O         77.40253       13.43922       98.73618
H         77.06641       13.80331       99.59177
H         77.64789       12.50067       98.93611
O         75.55751       15.69433       96.68540
H         76.44120       15.91698       97.07253
H         74.91068       16.21711       97.22285
O         73.63700       12.41072       99.87142
H         73.77857       12.01016      100.76502
H         72.65513       12.49783       99.78687

Ca 1.0



