%chk=apoCaM-CA-Ng.loop2.water4.frame1139.chk
%nprocshared=20
%mem=10GB
%nosave
#b3lyp/svp scf=(tight,noincore,xqc) Test 
#IOP(5/87=12) Density=Current Pop=(MK,readradii) iop(6/33=2) iop(6/42=6)

apoCaM-CA-Ng.loop2.water4.frame1139 

   -2  1 
C         82.26202       52.50383       70.18421
C         82.31960       53.09042       71.57812
O         81.26289       53.14019       72.19053
H         83.21239       52.42033       69.63628
H         81.85337       51.47338       70.25197
H         81.57562       53.11270       69.56015
N         83.45140       53.54611       72.20141
C         84.79753       53.59280       71.63817
C         85.35372       55.00855       71.55187
O         84.73860       55.94221       72.04176
C         85.72017       52.59269       72.36490
C         85.97987       52.69688       73.85609
O         86.68790       51.83364       74.34940
O         85.49526       53.64478       74.68994
H         83.33387       53.87181       73.16649
H         84.78421       53.26241       70.59112
H         86.70944       52.59877       71.86022
H         85.27615       51.58609       72.19880
N         86.49618       55.23239       70.83211
C         87.08590       56.53849       70.52805
C         87.73015       57.24654       71.71156
O         88.31508       58.29726       71.48889
C         86.07290       57.45229       69.81900
H         86.95113       54.41834       70.39174
H         87.91501       56.35781       69.80739
H         85.23985       57.74398       70.49007
H         86.56974       58.38534       69.47746
H         85.65527       56.93734       68.92826
N         87.71704       56.73174       72.97331
C         88.37557       57.37030       74.11284
C         88.28379       56.47331       75.33508
O         87.20650       55.98933       75.65427
C         87.85395       58.80039       74.42294
C         86.38136       58.94770       74.68701
O         85.54280       57.90394       74.59928
O         85.93331       60.04866       74.96351
H         87.25148       55.82840       73.13242
H         89.45479       57.49752       73.87124
H         88.10366       59.47903       73.58250
H         88.40914       59.17846       75.31003
N         89.39851       56.21274       76.07328
C         89.42440       55.32211       77.22160
C         88.56290       55.73409       78.40478
O         88.60488       55.00753       79.38755
H         90.29414       56.63934       75.79054
H         90.47356       55.25425       77.58394
H         89.11384       54.30609       76.89356
N         87.74048       56.82845       78.40241
C         86.87160       57.16791       79.52710
C         85.42119       56.85735       79.19503
O         85.12321       56.48819       78.06640
C         87.07459       58.64923       79.91963
C         86.65801       59.61166       78.82408
N         87.55761       60.44183       78.24739
O         85.49192       59.64602       78.45892
H         87.68064       57.42995       77.57267
H         87.12634       56.53885       80.40722
H         88.14768       58.79593       80.17023
H         86.48583       58.88553       80.83110
H         88.54644       60.43605       78.53465
H         87.26250       61.09319       77.50432
N         84.45784       56.97124       80.15227
C         83.06135       56.67546       79.86082
C         82.12944       56.87122       81.04881
O         82.59407       57.20969       82.12790
H         84.74118       57.27009       81.09668
H         82.98135       55.62069       79.51655
H         82.72932       57.35651       79.05043
N         80.77568       56.69670       80.94847
C         80.07685       56.30198       79.72572
C         79.14010       57.40195       79.24841
O         78.90195       58.36672       79.96188
C         79.28266       54.98595       79.93986
C         80.18809       53.79238       80.27661
O         78.28200       55.15021       80.91757
H         80.20787       56.87178       81.79213
H         80.80015       56.13318       78.90385
H         78.77169       54.72219       78.98874
H         78.71075       55.12532       81.81252
H         79.56874       52.87597       80.38607
H         80.91986       53.62496       79.45946
H         80.73933       53.96232       81.22529
N         78.60983       57.31683       77.99570
C         77.69661       58.28911       77.39964
C         76.46801       57.56033       76.85234
O         76.65414       56.56815       76.16171
C         78.40246       59.12083       76.28489
C         79.05065       58.25788       75.17016
C         79.42907       60.07570       76.92902
C         79.56662       59.08694       73.99296
H         78.90135       56.51993       77.40895
H         77.38490       59.04421       78.13609
H         77.61771       59.75768       75.82167
H         78.29959       57.56647       74.74446
H         79.88572       57.65450       75.58591
H         79.85519       60.77707       76.18544
H         78.93432       60.70678       77.69914
H         80.25356       59.50976       77.41051
H         79.96318       58.40861       73.21102
H         78.73739       59.67875       73.55149
H         80.38688       59.76732       74.29474
N         75.17685       57.97698       77.02785
C         74.73536       59.15832       77.76421
C         73.30515       59.52343       77.36371
O         72.41786       58.69128       77.47719
C         74.84953       58.96439       79.30303
C         74.17942       57.72782       79.84530
O         72.97129       57.58046       79.77222
O         74.92072       56.78928       80.46510
H         74.45397       57.43268       76.52965
H         75.37222       60.02351       77.48029
H         74.43954       59.86300       79.81396
H         75.90919       58.89693       79.60236
N         73.01847       60.77031       76.87997
C         71.66504       61.22944       76.55703
C         71.72110       62.63818       75.96030
O         72.35178       63.49543       76.56383
C         70.76819       61.21381       77.82295
C         69.35063       61.64470       77.52359
C         69.02586       63.00904       77.42262
C         68.34061       60.68488       77.33095
C         67.71866       63.40489       77.13005
C         67.03503       61.08581       77.03058
C         66.72442       62.44445       76.93092
H         73.79896       61.43178       76.76095
H         71.21892       60.52443       75.82804
H         71.18960       61.83821       78.63988
H         70.72730       60.17945       78.21663
H         69.78296       63.76712       77.57481
H         68.56569       59.62742       77.39585
H         67.47791       64.45729       77.05631
H         66.26416       60.34280       76.87217
H         65.71344       62.75339       76.69979
N         71.05258       62.98406       74.81194
C         70.13411       62.12338       74.08424
C         70.82651       61.05321       73.26203
O         70.12619       60.17118       72.78620
C         69.32180       63.10729       73.23593
C         70.35187       64.17307       72.92253
C         71.06123       64.32639       74.26666
H         69.43073       61.61855       74.77894
H         68.78781       62.66704       72.36689
H         68.56570       63.59102       73.89779
H         71.06948       63.73519       72.19259
H         69.95266       65.12252       72.50594
H         72.08620       64.72469       74.10584
H         70.49656       64.98734       74.96179
N         72.17967       61.03453       73.07212
C         72.85485       59.92212       72.41396
C         72.29402       59.71370       71.00748
O         72.46457       60.61294       70.19595
C         74.39883       60.08883       72.30226
C         75.17497       60.20732       73.63307
C         75.30123       61.59760       74.20881
O         74.89126       62.58054       73.61287
O         75.97338       61.76873       75.36195
H         72.72944       61.81353       73.43545
H         72.69811       59.04506       73.05823
H         74.69346       60.91127       71.61386
H         74.74583       59.13963       71.83451
H         76.22230       59.89097       73.44087
H         74.74395       59.50249       74.37587
N         71.61693       58.59546       70.59759
C         71.25997       57.43743       71.39968
H         70.15694       57.31151       71.37770
H         71.72684       56.52978       70.96482
H         71.54901       57.49050       72.45895
H         71.30592       58.56223       69.61421
Ca        84.20525       55.50059       74.69654
O         82.64515       57.79864       76.26554
H         82.71787       58.53633       76.92127
H         82.43523       58.25128       75.41079
O         85.48789       53.67600       77.61118
H         85.32109       52.70154       77.56545
H         86.06910       53.79467       78.40349
O         81.93894       56.69109       73.17155
H         82.02938       56.39073       72.23295
H         81.49046       55.93857       73.63308
O         82.41706       54.23154       76.74735
H         81.43338       54.33151       76.69854
H         82.57226       53.66070       77.54098

Ca 1.0



