%chk=apoCaM-CA-Ng.loop1.water3.frame1049.chk
%nprocshared=20
%mem=10GB
%nosave
#b3lyp/svp scf=(tight,noincore,xqc) Test 
#IOP(5/87=12) Density=Current Pop=(MK,readradii) iop(6/33=2) iop(6/42=6)

apoCaM-CA-Ng.loop1.water3.frame1049 

   0  1 
C         16.28414       81.07870       55.80350
C         16.68115       80.26640       56.99700
O         17.65910       80.61134       57.63786
H         15.26645       81.49306       55.95528
H         16.99598       81.91747       55.64549
H         16.29108       80.43193       54.90128
N         15.93253       79.18647       57.36294
C         16.22893       78.30093       58.49014
C         17.41685       77.37806       58.20160
O         17.23382       76.17471       58.07454
C         14.96496       77.50300       58.92323
C         14.43485       76.50925       57.91744
O         14.02237       76.87400       56.82918
O         14.38622       75.20119       58.23590
H         15.07020       79.02720       56.82507
H         16.46530       78.91807       59.38471
H         14.15425       78.21897       59.17858
H         15.21900       76.94758       59.85435
N         18.68582       77.86838       58.17355
C         19.86531       77.03128       58.03594
C         20.41256       76.69722       59.42350
O         20.49752       75.50925       59.70321
C         20.90333       77.62306       57.05403
C         20.37152       77.90465       55.63241
C         19.74658       76.67672       54.95019
C         19.52810       76.92490       53.44999
N         18.86471       75.78348       52.81906
H         18.82955       78.85299       58.38407
H         19.57818       76.05233       57.59147
H         21.74082       76.89660       56.97076
H         21.33717       78.56848       57.42457
H         21.24450       78.24757       55.03452
H         19.62422       78.72926       55.64825
H         18.77473       76.44455       55.43797
H         20.42363       75.80210       55.05675
H         20.52016       77.08256       52.96905
H         18.91331       77.83806       53.29059
H         19.39331       74.90083       53.00774
H         17.88885       75.69494       53.18487
H         18.82484       75.93776       51.78549
N         20.72234       77.60412       60.40505
C         20.66409       79.06170       60.30917
C         19.34939       79.61923       60.87094
O         18.56494       78.87409       61.44161
C         21.89055       79.70548       60.99841
C         21.83287       79.53476       62.49253
O         21.46643       80.59253       63.22438
O         21.97303       78.44583       63.02384
H         20.95310       77.19776       61.32148
H         20.70950       79.36354       59.25640
H         21.85114       80.79347       60.78007
H         22.85118       79.32297       60.59260
N         19.02136       80.92930       60.66387
C         17.75365       81.53098       61.06957
C         17.69891       81.89324       62.53967
O         18.66043       81.66839       63.24801
H         19.65984       81.51017       60.10019
H         16.90827       80.86869       60.78500
H         17.63096       82.48636       60.51689
N         16.59505       82.53482       63.03732
C         16.44882       82.99449       64.43432
C         15.39147       84.10593       64.53700
O         14.66933       84.32212       63.57578
C         16.03948       81.79641       65.33973
C         17.14640       80.80023       65.45015
O         18.31036       81.17230       66.01736
O         17.02926       79.69119       64.95604
H         15.85397       82.74833       62.35560
H         17.40311       83.46357       64.74862
H         15.12785       81.32630       64.90820
H         15.78501       82.09181       66.36787
N         15.21093       84.88928       65.64895
C         15.99507       84.88394       66.87643
C         17.38946       85.42012       66.67474
O         17.51293       86.55985       66.24618
H         14.44039       85.57693       65.61400
H         15.99350       83.89722       67.36211
H         15.51017       85.57583       67.60027
N         18.48865       84.67418       66.99612
C         19.85419       85.19484       66.90864
C         20.60925       84.49106       65.79938
O         20.18736       83.41803       65.39712
C         20.58952       85.03155       68.25953
C         19.79052       85.61666       69.43146
O         21.84045       85.66209       68.18538
H         18.35453       83.70417       67.32228
H         19.81943       86.27577       66.64833
H         20.73062       83.94224       68.44739
H         22.34762       85.38323       68.99128
H         20.35517       85.47092       70.37760
H         19.60939       86.70085       69.28182
H         18.81780       85.09200       69.54166
N         21.68412       85.09428       65.19876
C         22.38821       84.58622       64.01528
C         23.16819       83.32616       64.33330
O         22.57179       82.33925       64.72959
C         21.39306       84.35134       62.83615
C         20.63834       85.66002       62.48344
C         22.09316       83.77836       61.58841
C         19.21349       85.38094       62.00915
H         21.97513       86.02062       65.54725
H         23.11397       85.36360       63.68763
H         20.66096       83.58823       63.15764
H         21.21687       86.24958       61.73766
H         20.51364       86.30690       63.37579
H         21.36065       83.58898       60.77695
H         22.87078       84.48102       61.22031
H         22.58887       82.81335       61.82279
H         19.19283       84.70578       61.13149
H         18.64429       84.91109       62.84354
H         18.71164       86.33827       61.75646
N         24.52258       83.28884       64.16523
C         25.30883       82.06542       64.32695
C         25.94033       82.02553       65.70666
O         27.11909       81.72385       65.83709
C         26.33915       81.93066       63.16169
C         27.41386       83.04183       63.14551
O         25.66878       81.96011       61.92780
H         25.00261       84.15968       63.90368
H         24.62623       81.18720       64.28549
H         26.88787       80.96561       63.26878
H         25.31692       81.04770       61.76345
H         28.01083       83.06555       64.07842
H         28.12397       82.86575       62.31117
H         26.97630       84.04889       62.99720
N         25.20408       82.38789       66.79358
C         25.77548       82.56804       68.11816
C         24.87234       81.92108       69.15054
O         23.70730       82.28871       69.22183
C         25.97265       84.08327       68.37747
C         26.92489       84.71746       67.34299
O         24.74805       84.77388       68.39695
H         24.22574       82.67855       66.65855
H         26.78539       82.10534       68.17567
H         26.44464       84.20280       69.37560
H         24.40938       84.83656       67.46525
H         26.50078       84.65848       66.31640
H         27.08736       85.78879       67.57927
H         27.90548       84.19622       67.34622
N         25.33266       80.92529       69.96547
C         24.49083       80.18859       70.90681
C         23.39094       79.48394       70.12568
O         22.21915       79.76416       70.33902
C         23.91527       81.09861       72.02555
C         24.99061       81.80687       72.86365
C         24.32555       82.62448       73.98712
C         25.32063       83.34294       74.91398
N         26.13396       84.33098       74.20395
H         26.31988       80.63679       69.88690
H         25.10726       79.40857       71.40683
H         23.31212       80.45657       72.70588
H         23.23652       81.86573       71.59720
H         25.57724       82.47735       72.20121
H         25.67165       81.05193       73.31298
H         23.72124       81.93591       74.61860
H         23.63733       83.37708       73.54359
H         25.98120       82.60233       75.41635
H         24.73272       83.86440       75.70283
H         26.78969       83.85794       73.54273
H         25.52081       85.00107       73.68540
H         26.70237       84.86492       74.90051
N         23.71901       78.56889       69.16626
C         22.73862       77.97053       68.26552
C         23.07616       78.31433       66.81311
O         22.32931       79.10039       66.25416
C         22.55429       76.46314       68.52080
C         21.78741       76.19331       69.82239
C         21.57068       74.71851       70.00902
O         20.43847       74.26248       70.03994
O         22.62480       73.89099       70.14162
H         24.71134       78.32474       69.04995
H         21.74262       78.43024       68.44641
H         23.53336       75.94976       68.56901
H         21.94933       76.03657       67.68984
H         20.79754       76.70056       69.76813
H         22.34238       76.59525       70.69595
N         24.13066       77.82997       66.09097
C         25.08732       76.84000       66.52949
H         25.64055       77.18241       67.42241
H         24.58345       75.87110       66.70718
H         25.82573       76.65953       65.71951
H         24.24503       78.17794       65.12537
Ca        20.23584       80.44574       65.10692
O         19.46699       77.45664       64.39129
H         18.64242       77.71049       64.87365
H         19.51931       78.10859       63.65090
O         19.36001       78.58972       67.38117
H         18.57157       78.50170       67.97218
H         19.65008       77.65890       67.20897
O         20.67325       81.29368       67.97497
H         21.65568       81.18313       68.01340
H         20.38131       81.28645       68.92064

Ca 1.0



