%chk=apoCaM-CA-Ng.loop1.water2.frame942.chk
%nprocshared=20
%mem=10GB
%nosave
#b3lyp/svp scf=(tight,noincore,xqc) Test 
#IOP(5/87=12) Density=Current Pop=(MK,readradii) iop(6/33=2) iop(6/42=6)

apoCaM-CA-Ng.loop1.water2.frame942 

   0  1 
C         11.90088       -8.26866       59.53361
C         12.08293       -9.02402       60.81942
O         12.03028      -10.24489       60.79825
H         11.98216       -7.17157       59.68932
H         12.68616       -8.57572       58.81127
H         10.90210       -8.49075       59.10468
N         12.31640       -8.35419       61.98183
C         12.53656       -9.00775       63.27053
C         11.45019       -8.62293       64.27094
O         10.56111       -7.85551       63.92692
C         14.00850       -8.79518       63.72447
C         14.57003       -7.38987       63.74832
O         15.76404       -7.23587       63.94908
O         13.80909       -6.31208       63.49881
H         12.34559       -7.32600       61.94434
H         12.42572      -10.10926       63.16399
H         14.62864       -9.34164       62.98017
H         14.18076       -9.27733       64.70932
N         11.41922       -9.19478       65.51201
C         10.31399       -9.03394       66.45629
C         10.75602       -8.28337       67.69132
O         11.68338       -8.72638       68.35628
C          9.79644      -10.41505       66.92741
C          9.11739      -11.25074       65.83679
C          8.66962      -12.60357       66.42032
C          7.91192      -13.44877       65.38939
N          7.53653      -14.74714       65.95239
H         12.19568       -9.81297       65.79126
H          9.46476       -8.48344       65.99544
H          9.04339      -10.25450       67.73317
H         10.64374      -10.99251       67.36202
H          9.82076      -11.42715       64.99507
H          8.23128      -10.69494       65.45936
H          8.00315      -12.43364       67.29544
H          9.56725      -13.16324       66.76522
H          8.55202      -13.61083       64.49473
H          6.99309      -12.90563       65.07439
H          7.00579      -15.29225       65.23514
H          8.39393      -15.28518       66.21671
H          6.93000      -14.61784       66.79488
N         10.06258       -7.17993       68.10515
C         10.30477       -6.52200       69.38915
C          9.05254       -6.64367       70.23038
O          7.98779       -6.82631       69.65264
C         10.64698       -5.02470       69.22015
C         11.62753       -4.82170       68.11170
O         11.18977       -4.97395       66.84703
O         12.78076       -4.49272       68.33549
H          9.28517       -6.83272       67.52139
H         11.15105       -7.03035       69.89497
H         11.03867       -4.64070       70.18681
H          9.74429       -4.43041       68.95432
N          9.02280       -6.54843       71.58444
C         10.12944       -6.42303       72.51591
C         10.11756       -7.60453       73.47311
O          9.36656       -8.54559       73.25455
H          8.09827       -6.60587       72.00708
H          9.96980       -5.49143       73.09959
H         11.11502       -6.35579       72.01638
N         10.92206       -7.62424       74.57412
C         10.94258       -8.75392       75.50535
C          9.57329       -8.95676       76.13946
O          9.10997       -8.07871       76.85489
C         12.00334       -8.52860       76.60611
C         12.16890       -9.69068       77.55665
O         11.52086      -10.71837       77.42933
O         13.05617       -9.59342       78.56404
H         11.54346       -6.81763       74.74088
H         11.23416       -9.65934       74.92744
H         11.73057       -7.62531       77.19529
H         12.98719       -8.34441       76.12505
N          8.86171      -10.09327       75.88776
C          7.53533      -10.34777       76.42403
C          6.54851      -10.21427       75.30383
O          5.86234      -11.16806       74.96728
H          9.24943      -10.79163       75.23490
H          7.25419       -9.61127       77.20700
H          7.51062      -11.35977       76.88348
N          6.43964       -9.00754       74.68572
C          5.58034       -8.72267       73.54438
C          5.41349       -7.21658       73.43689
O          6.40171       -6.50288       73.45224
C          6.18160       -9.23071       72.19859
C          6.47750      -10.72802       72.13641
O          5.28028       -8.92319       71.16429
H          6.99443       -8.23348       75.08337
H          4.58020       -9.18466       73.69919
H          7.14439       -8.70189       72.02847
H          5.81620       -8.72563       70.35167
H          7.26424      -11.00730       72.86490
H          5.55285      -11.31552       72.31497
H          6.86892      -10.98220       71.12786
N          4.18742       -6.65927       73.29840
C          3.99364       -5.23149       73.07823
C          3.20130       -4.69870       74.23860
O          3.71229       -3.86553       74.97521
C          3.30549       -5.03390       71.69647
C          4.26012       -5.51302       70.56981
C          2.87794       -3.57296       71.46440
C          3.55208       -5.75080       69.23809
H          3.35886       -7.27350       73.30072
H          4.96246       -4.68010       73.05961
H          2.39286       -5.66875       71.68320
H          4.70417       -6.48897       70.83790
H          5.09916       -4.79245       70.44743
H          3.76023       -2.89853       71.47759
H          2.35483       -3.46271       70.49345
H          2.16584       -3.24434       72.25010
H          3.08300       -4.82924       68.84459
H          4.28961       -6.11756       68.49276
H          2.77486       -6.53531       69.36864
N          1.93807       -5.14429       74.46150
C          1.12901       -4.70824       75.57911
C          0.01269       -3.85011       75.04547
O         -0.70864       -4.26698       74.14926
C          0.58658       -5.91907       76.36764
C          1.71564       -6.81857       76.88911
O         -0.21376       -5.48499       77.44074
H          1.51514       -5.81035       73.79806
H          1.73534       -4.10358       76.29077
H         -0.05036       -6.53150       75.69323
H          0.35728       -4.93823       78.04353
H          2.31373       -7.22403       76.04565
H          2.38998       -6.24920       77.56427
H          1.28310       -7.67250       77.45120
N         -0.18593       -2.62407       75.58890
C         -1.21798       -1.69839       75.16112
C         -0.60945       -0.32064       74.93982
O         -0.83448        0.25607       73.88509
C         -2.35462       -1.69644       76.20542
C         -3.53973       -0.83291       75.76384
O         -1.89429       -1.25879       77.45467
H          0.39327       -2.36605       76.39978
H         -1.68709       -2.04247       74.21088
H         -2.75052       -2.73769       76.29118
H         -1.56140       -2.05671       77.94229
H         -4.35513       -0.90163       76.51454
H         -3.24276        0.23080       75.65725
H         -3.93423       -1.19523       74.78941
N          0.18470        0.26102       75.89053
C          0.72354        1.60946       75.77989
C          2.23559        1.62306       75.65243
O          2.90066        0.62573       75.89603
C          0.35175        2.38823       77.06366
C         -1.15532        2.64710       77.18399
C         -1.53203        3.30543       78.52748
C         -1.44589        2.37480       79.75822
N         -2.42719        1.28889       79.69628
H          0.41279       -0.25804       76.74990
H          0.32357        2.11767       74.87560
H          0.86484        3.37480       77.08971
H          0.72048        1.79965       77.93245
H         -1.74201        1.71992       77.03843
H         -1.42479        3.34343       76.36120
H         -2.57753        3.67369       78.46190
H         -0.87527        4.18813       78.68966
H         -1.66427        2.98383       80.66280
H         -0.42454        1.95646       79.88254
H         -2.21404        0.64790       78.90611
H         -2.38923        0.73430       80.58162
H         -3.39221        1.67650       79.58334
N          2.83124        2.79651       75.29603
C          4.26545        3.05104       75.31235
C          5.06817        2.08439       74.44269
O          5.94639        1.44055       74.99907
C          4.53430        4.53947       74.96770
C          5.94659        4.99919       75.34691
C          6.09537        6.47774       75.11654
O          5.99272        6.94133       73.99193
O          6.33043        7.30152       76.15648
H          2.20854        3.58569       75.06018
H          4.59152        2.91631       76.36853
H          3.83316        5.15917       75.57088
H          4.33524        4.75248       73.89689
H          6.71396        4.44993       74.76271
H          6.10688        4.79493       76.42843
N          4.88138        1.88677       73.10287
C          3.86560        2.50185       72.27488
H          3.19329        3.17626       72.82904
H          4.35429        3.07311       71.45787
H          3.24116        1.70307       71.82134
H          5.50676        1.21844       72.62478
Ca        12.44663       -5.62222       65.12297
O         14.80652       -6.56045       66.89627
H         13.94289       -6.64764       67.37096
H         15.08062       -7.49484       66.71965
O         15.31285       -3.68919       64.57150
H         16.03513       -4.36042       64.66226
H         15.70831       -2.97334       64.01318

Ca 1.0



