%chk=apoCaM-CA-Ng.loop3.water3.frame838.chk
%nprocshared=20
%mem=10GB
%nosave
#b3lyp/svp scf=(tight,noincore,xqc) Test 
#IOP(5/87=12) Density=Current Pop=(MK,readradii) iop(6/33=2) iop(6/42=6)

apoCaM-CA-Ng.loop3.water3.frame838 

   0  1 
C         67.74721      -24.57435       77.67954
C         68.69440      -25.36356       76.82333
O         68.97720      -26.50561       77.15177
H         66.77560      -25.11092       77.73354
H         68.16117      -24.46000       78.70128
H         67.55754      -23.56601       77.25354
N         69.19135      -24.82751       75.67565
C         69.99742      -25.58884       74.72366
C         71.35768      -25.97531       75.31930
O         71.79318      -25.34067       76.26999
C         70.08196      -24.76089       73.41375
C         70.48964      -25.46309       72.14986
O         70.48187      -24.83719       71.10532
O         70.78415      -26.76854       72.11644
H         68.90488      -23.86591       75.43181
H         69.43029      -26.50587       74.50630
H         70.72753      -23.87536       73.58780
H         69.05609      -24.39311       73.18817
N         72.06428      -27.03483       74.82247
C         73.36660      -27.48729       75.31685
C         74.46624      -27.21935       74.28249
O         75.63139      -27.22406       74.65362
C         73.23013      -28.97749       75.70673
C         74.50079      -29.68027       76.20930
C         74.16453      -31.13748       76.57656
C         75.40362      -31.94000       76.99194
N         75.03588      -33.31377       77.34218
H         71.64912      -27.57907       74.06171
H         73.64669      -26.89603       76.21620
H         72.86888      -29.53975       74.81970
H         72.44816      -29.04599       76.49544
H         74.90800      -29.15260       77.09867
H         75.26508      -29.67970       75.40296
H         73.70547      -31.64139       75.69702
H         73.42776      -31.14155       77.41001
H         75.89262      -31.45649       77.86581
H         76.12786      -31.96026       76.14720
H         74.57019      -33.78346       76.53137
H         75.89799      -33.85033       77.59098
H         74.38900      -33.31415       78.16434
N         74.16468      -26.90234       72.99023
C         75.10911      -26.39712       71.99964
C         74.68154      -24.99813       71.52730
O         75.35816      -24.43497       70.67827
C         75.25884      -27.40137       70.83241
C         73.95141      -27.91200       70.29477
O         73.01085      -27.07232       69.83547
O         73.71919      -29.11010       70.31458
H         73.19257      -26.96925       72.67459
H         76.12453      -26.27289       72.43685
H         75.82887      -28.28058       71.20769
H         75.85895      -26.94371       70.01684
N         73.61422      -24.34652       72.08504
C         73.22665      -22.97698       71.78766
C         72.60103      -22.72630       70.43013
O         72.18964      -21.59267       70.22591
H         73.08686      -24.78807       72.84814
H         74.09973      -22.30483       71.93160
H         72.45800      -22.67623       72.53142
N         72.49761      -23.67334       69.44922
C         71.93162      -23.37128       68.13294
C         70.89162      -24.38845       67.68595
O         70.73768      -25.43142       68.29963
C         73.08437      -23.30994       67.11680
C         74.02440      -22.18400       67.47415
N         75.29220      -22.43407       67.87430
O         73.62471      -21.03002       67.42142
H         72.89725      -24.60667       69.60084
H         71.41851      -22.38453       68.14756
H         72.70950      -23.13681       66.08542
H         73.61777      -24.28681       67.12839
H         75.64435      -23.39910       67.94834
H         75.91793      -21.65705       68.13421
N         70.12777      -24.11276       66.59097
C         69.16077      -25.01673       65.98731
C         68.08009      -25.49296       66.93416
O         67.45446      -24.68257       67.60252
H         70.24991      -23.19688       66.13219
H         69.69423      -25.88565       65.54615
H         68.66524      -24.47807       65.15056
N         67.75929      -26.81887       66.96607
C         66.69012      -27.38913       67.78586
C         67.03925      -27.36417       69.26553
O         68.10451      -26.88998       69.62922
C         66.37405      -28.82506       67.28780
C         65.74093      -28.77323       65.91237
C         64.46966      -28.18918       65.75378
C         66.39574      -29.29537       64.78468
C         63.87022      -28.11918       64.49464
C         65.79430      -29.21935       63.52141
C         64.53271      -28.63091       63.37177
O         63.96793      -28.56244       62.14893
H         68.26221      -27.44727       66.32056
H         65.76998      -26.77733       67.66675
H         65.65249      -29.34812       67.94859
H         67.31293      -29.42232       67.28884
H         63.93792      -27.78890       66.60810
H         67.37362      -29.74975       64.87858
H         62.89185      -27.66522       64.39422
H         66.31009      -29.61573       62.65600
H         63.09919      -28.15936       62.00537
N         66.13175      -27.82965       70.17758
C         66.26102      -27.76857       71.63249
C         67.44928      -28.57610       72.14121
O         68.58192      -28.24474       71.83163
C         66.29846      -26.29347       72.13250
C         66.40498      -26.17767       73.67761
C         65.07875      -25.51016       71.61214
C         65.23534      -26.76076       74.47400
H         65.24493      -28.21742       69.82335
H         65.33445      -28.22094       72.04783
H         67.20629      -25.80233       71.72039
H         66.50959      -25.10446       73.94893
H         67.32000      -26.69500       74.01357
H         65.12061      -24.45648       71.95900
H         65.06321      -25.49815       70.50216
H         64.12975      -25.96911       71.95991
H         65.43418      -26.62146       75.55792
H         64.28675      -26.24099       74.23238
H         65.12446      -27.84774       74.28780
N         67.25152      -29.64932       72.95906
C         68.35677      -30.41305       73.54900
C         67.97590      -31.74470       74.20245
O         68.89430      -32.43345       74.62809
C         69.08472      -29.55054       74.59470
O         68.18740      -29.19142       75.61241
H         66.27717      -29.89077       73.14768
H         69.05799      -30.68522       72.73106
H         69.48649      -28.64204       74.11889
H         69.94852      -30.11597       75.01576
H         68.73393      -28.96146       76.40674
N         66.69419      -32.20470       74.31789
C         66.38001      -33.50701       74.89548
C         66.97065      -34.63046       74.05022
O         67.40192      -34.35304       72.93858
C         64.86013      -33.64929       74.95672
H         65.90241      -31.64228       73.99863
H         66.80653      -33.54417       75.92213
H         64.42146      -33.55087       73.94076
H         64.57925      -34.62824       75.33862
H         64.42965      -32.86267       75.61347
N         67.08774      -35.92405       74.47593
C         66.78492      -36.43579       75.81167
C         66.33694      -37.89018       75.71082
O         67.04767      -38.65860       75.07628
C         68.06106      -36.38291       76.65607
H         67.58641      -36.56282       73.83548
H         66.05196      -35.81093       76.34723
H         67.85656      -36.77605       77.67588
H         68.87304      -36.98448       76.19439
H         68.40952      -35.33287       76.75312
N         65.23950      -38.40815       76.33572
C         64.32622      -37.68612       77.21321
C         63.42730      -36.75090       76.43386
O         63.18440      -35.64690       76.90127
C         63.48716      -38.69318       78.02882
C         62.63651      -38.00370       79.10827
C         61.97881      -39.01643       79.99960
O         62.73288      -39.86676       80.72365
O         60.76291      -39.06087       80.09114
H         65.09259      -39.42595       76.23272
H         64.91927      -37.12218       77.96814
H         64.20253      -39.37459       78.54168
H         62.84046      -39.30425       77.36051
H         61.86684      -37.36120       78.62808
H         63.28462      -37.36261       79.74452
N         62.88309      -37.13034       75.24346
C         62.03689      -36.25139       74.46361
H         61.12710      -35.98458       75.04016
H         62.58708      -35.32588       74.19510
H         61.73249      -36.75485       73.52138
H         63.09178      -38.06555       74.86293
Ca        70.98427      -27.97097       69.41789
O         70.73532      -28.59793       66.58421
H         71.21776      -27.73664       66.66335
H         71.45183      -29.27891       66.53298
O         71.54964      -29.76151       72.27205
H         72.38967      -29.29175       72.49764
H         71.58716      -30.59584       72.80272
O         69.56183      -30.43947       69.85151
H         69.97244      -31.23804       70.26803
H         68.60191      -30.66362       69.76397

Ca 1.0



