%chk=apoCaM-CA-Ng.loop2.water4.frame211.chk
%nprocshared=20
%mem=10GB
%nosave
#b3lyp/svp scf=(tight,noincore,xqc) Test 
#IOP(5/87=12) Density=Current Pop=(MK,readradii) iop(6/33=2) iop(6/42=6)

apoCaM-CA-Ng.loop2.water4.frame211 

   -2  1 
C         11.92451       42.84722       82.39784
C         10.71401       42.32350       83.11634
O          9.79374       41.83679       82.47547
H         12.82111       42.27656       82.72321
H         11.81543       42.73978       81.29796
H         12.07381       43.91991       82.64223
N         10.66206       42.38598       84.47406
C          9.56077       41.85407       85.27017
C          8.23880       42.54029       84.93622
O          8.13460       43.75105       85.06786
C          9.88983       42.01835       86.77451
C          8.87708       41.41730       87.71903
O          9.08138       41.51397       89.04614
O          7.88308       40.83868       87.30931
H         11.46919       42.80543       84.96332
H          9.48486       40.76188       85.06798
H          9.99536       43.09942       87.01003
H         10.86366       41.52181       86.98029
N          7.16155       41.78612       84.57425
C          5.81579       42.31512       84.36357
C          5.67469       43.04672       83.04634
O          5.98322       42.46184       82.01653
C          4.80776       41.15822       84.34677
H          7.28726       40.76221       84.54302
H          5.53175       42.96453       85.22142
H          3.77694       41.55279       84.21276
H          5.02929       40.45064       83.51798
H          4.84831       40.60460       85.30817
N          5.12154       44.29498       82.99011
C          4.80603       44.94289       81.71848
C          3.77928       44.11538       80.94709
O          2.63436       44.03793       81.37285
C          4.25347       46.37513       81.93435
C          5.29325       47.36922       82.38793
O          4.99013       48.54692       82.48377
O          6.57458       46.99081       82.56935
H          4.87810       44.77214       83.87219
H          5.73224       45.01466       81.10855
H          3.39645       46.35570       82.64507
H          3.88083       46.75473       80.95776
N          4.14850       43.43273       79.81957
C          3.23405       42.60934       79.03051
C          3.40170       42.75538       77.51555
O          2.65685       42.10707       76.79440
H          5.14846       43.42058       79.57501
H          2.17755       42.84127       79.29540
H          3.41957       41.54544       79.28175
N          4.32950       43.58673       76.95651
C          4.45763       43.83643       75.51917
C          5.01200       42.64977       74.72253
O          5.95647       42.00662       75.15778
C          5.37434       45.05725       75.30587
C          5.34067       45.54783       73.87969
N          6.45962       45.57512       73.12181
O          4.28318       45.93764       73.40687
H          4.92625       44.14561       77.57894
H          3.45512       44.12742       75.13263
H          6.40346       44.80286       75.62940
H          5.02111       45.89400       75.94627
H          7.36165       45.25302       73.49413
H          6.42212       45.91997       72.15172
N          4.52243       42.39551       73.47431
C          5.01521       41.36930       72.56205
C          6.43573       41.60413       72.07907
O          6.73554       42.70495       71.63719
H          3.74703       42.98165       73.12843
H          4.38256       41.41176       71.64678
H          4.89157       40.35720       72.99958
N          7.32741       40.56685       72.01000
C          8.62974       40.69705       71.34689
C          9.65324       41.45369       72.19437
O         10.72037       41.75929       71.68051
C          9.17996       39.30923       70.88696
C          9.74632       38.43796       72.01857
O          8.19911       38.61455       70.15233
H          7.00762       39.63529       72.31189
H          8.45477       41.26316       70.40386
H         10.03780       39.47523       70.19794
H          7.66020       38.06419       70.77994
H         10.04469       37.44188       71.62984
H         10.67085       38.90867       72.38470
H          9.01750       38.30621       72.84598
N          9.42197       41.72743       73.51357
C         10.38733       42.38167       74.40214
C          9.75925       43.55920       75.11366
O          8.55082       43.72101       75.05457
C         10.90647       41.38259       75.48930
C          9.72965       40.76420       76.30709
C         11.77877       40.30155       74.85116
C         10.15453       39.77300       77.38540
H          8.53097       41.42284       73.92509
H         11.25018       42.76950       73.81608
H         11.57521       41.93876       76.18222
H          9.03531       40.21371       75.63939
H          9.16160       41.58083       76.80237
H         11.14936       39.63231       74.25629
H         12.56802       40.75727       74.21577
H         12.28838       39.69397       75.62524
H          9.25019       39.42116       77.92665
H         10.63293       38.88032       76.93186
H         10.84725       40.25250       78.10545
N         10.53513       44.39237       75.86677
C          9.98389       45.41195       76.74597
C         10.34126       46.79593       76.22442
O         10.89836       47.60792       76.94584
C         10.51653       45.12492       78.17021
C          9.91610       45.96198       79.26053
O          9.00612       46.74351       79.03547
O         10.39427       45.83722       80.51216
H         11.56017       44.27130       75.85173
H          8.87386       45.34376       76.75895
H         11.61890       45.27395       78.16939
H         10.31940       44.06144       78.43093
N         10.02800       47.12418       74.94183
C         10.28481       48.43115       74.34072
C         11.77422       48.78550       74.40104
O         12.57705       47.94211       74.02714
C          9.83299       48.40340       72.86613
C          9.90687       49.77737       72.26007
C          8.89013       50.71268       72.51823
C         11.00176       50.14758       71.46431
C          8.96999       52.00153       71.98543
C         11.08316       51.44129       70.94295
C         10.06775       52.36684       71.20153
H          9.57549       46.39939       74.36365
H          9.67349       49.18155       74.88467
H          8.78848       48.03219       72.77049
H         10.48183       47.68913       72.31211
H          8.04047       50.44265       73.13410
H         11.80076       49.44314       71.26877
H          8.18428       52.71807       72.18650
H         11.93669       51.72735       70.34305
H         10.13293       53.36797       70.79708
N         12.23305       50.01199       74.81667
C         13.64569       50.36250       74.94256
C         14.33494       49.51646       75.99036
O         15.49789       49.17258       75.83299
C         13.62161       51.81489       75.44422
C         12.32718       52.32986       74.86618
C         11.39720       51.15206       75.13069
H         14.13491       50.30723       73.94316
H         13.48550       51.84079       76.55059
H         14.53441       52.39876       75.19486
H         11.98078       53.29744       75.28631
H         12.46004       52.43676       73.76472
H         11.10035       51.09633       76.20145
H         10.51150       51.26169       74.48535
N         13.63624       49.16113       77.10973
C         14.17885       48.41599       78.23758
C         14.68358       47.02604       77.83759
O         15.26657       46.36095       78.68315
C         13.10049       48.22067       79.34582
C         12.34462       49.48126       79.83787
C         11.29016       49.07058       80.83699
O          9.98196       49.25910       80.55761
O         11.61136       48.50749       81.87017
H         12.65971       49.46522       77.15912
H         15.02563       49.00889       78.64874
H         13.58579       47.73883       80.22274
H         12.33960       47.51670       78.95577
H         11.81213       49.98070       79.00381
H         13.04542       50.21444       80.28749
N         14.48148       46.50221       76.59246
C         14.94653       45.18677       76.21539
H         16.05022       45.12782       76.32085
H         14.46183       44.41751       76.85185
H         14.68220       44.98588       75.15405
H         13.97099       47.02828       75.87639
Ca         8.32211       48.08985       81.60049
O          8.33575       44.90752       81.93842
H          7.93403       44.81649       82.83541
H          8.10212       44.07051       81.46672
O          6.34797       48.69592       79.56126
H          6.12981       49.64161       79.36707
H          6.58876       48.30654       78.68378
O          7.51235       50.08919       83.59121
H          8.07540       50.90053       83.65086
H          6.75739       50.35788       83.01048
O          9.73518       47.61090       84.12293
H          9.69169       47.84681       85.08295
H         10.58915       47.12021       84.02270

Ca 1.0



