%chk=apoCaM-CA-Ng.loop1.water3.frame1228.chk
%nprocshared=20
%mem=10GB
%nosave
#b3lyp/svp scf=(tight,noincore,xqc) Test 
#IOP(5/87=12) Density=Current Pop=(MK,readradii) iop(6/33=2) iop(6/42=6)

apoCaM-CA-Ng.loop1.water3.frame1228 

   0  1 
C         76.11223        0.37711      116.12597
C         74.68605        0.28747      116.57953
O         73.81568        0.10231      115.74070
H         76.80028        0.54203      116.98131
H         76.39824       -0.56663      115.61647
H         76.22180        1.22298      115.41507
N         74.36858        0.41986      117.89887
C         73.00376        0.35620      118.39925
C         72.62996        1.69817      118.98545
O         72.30118        1.79168      120.16086
C         72.85939       -0.78882      119.42151
C         73.16757       -2.12564      118.81021
O         74.16818       -2.87787      119.30564
O         72.50641       -2.54262      117.87257
H         75.12315        0.58828      118.58208
H         72.28433        0.16492      117.57675
H         71.81458       -0.81480      119.80331
H         73.54241       -0.60860      120.28042
N         72.63155        2.79705      118.18033
C         72.19093        4.10834      118.63787
C         70.75400        4.01952      119.14446
O         70.54718        4.39065      120.29195
C         72.40463        5.20833      117.56511
C         73.90798        5.37669      117.26104
C         74.19664        6.52495      116.28703
C         75.71368        6.66561      116.07268
N         76.02595        7.77105      115.16849
H         72.92257        2.68006      117.19793
H         72.82679        4.41540      119.50021
H         72.02643        6.17067      117.97529
H         71.85176        5.00016      116.62785
H         74.31791        4.43764      116.83239
H         74.43994        5.58927      118.21460
H         73.79892        7.47410      116.70803
H         73.69768        6.32632      115.31337
H         76.12025        5.71984      115.64928
H         76.21002        6.84964      117.05214
H         75.59506        7.60275      114.23086
H         75.67326        8.67159      115.56650
H         77.06410        7.83623      115.05761
N         69.71145        3.46703      118.45094
C         69.75460        2.93775      117.08782
C         69.63012        1.42084      117.07290
O         69.42182        0.81179      118.11127
C         68.66428        3.62158      116.24239
C         67.29480        3.44141      116.83911
O         66.75970        2.21366      116.97287
O         66.67689        4.41441      117.23646
H         68.81524        3.38450      118.95654
H         70.72432        3.15061      116.61523
H         68.66650        3.23330      115.20251
H         68.89520        4.70896      116.19893
N         69.84430        0.74060      115.90871
C         69.88959       -0.71099      115.82599
C         68.54186       -1.37504      115.93631
O         67.53090       -0.69837      116.05010
H         70.08523        1.27454      115.06047
H         70.57650       -1.10561      116.60222
H         70.29751       -0.99843      114.83249
N         68.47087       -2.73563      115.89826
C         67.22529       -3.50680      115.90731
C         67.36464       -4.73899      114.98092
O         68.47461       -4.99232      114.52697
C         66.90059       -3.88077      117.37548
C         66.62569       -2.64267      118.19433
O         65.61060       -1.82833      117.83127
O         67.31861       -2.37129      119.16007
H         69.36640       -3.25110      115.89148
H         66.40643       -2.87543      115.50207
H         67.74834       -4.45900      117.80489
H         66.00177       -4.50599      117.45863
N         66.33778       -5.56796      114.60731
C         64.93395       -5.40733      114.94862
C         64.33775       -4.17256      114.32661
O         64.93746       -3.58258      113.44592
H         66.56745       -6.37798      114.01013
H         64.80474       -5.40474      116.03944
H         64.34752       -6.27573      114.57774
N         63.14163       -3.71277      114.77994
C         62.50354       -2.48501      114.30794
C         63.45152       -1.29283      114.42384
O         64.05310       -1.10464      115.46908
C         61.19079       -2.25357      115.10023
C         60.49176       -0.93940      114.72593
O         61.45615       -2.26928      116.47647
H         62.68808       -4.24887      115.53553
H         62.21921       -2.60615      113.23956
H         60.51244       -3.10326      114.84788
H         60.62625       -2.56872      116.93238
H         59.53930       -0.84749      115.28959
H         61.12614       -0.06428      114.98556
H         60.26780       -0.91529      113.63937
N         63.58246       -0.43469      113.36377
C         64.41856        0.76645      113.28611
C         64.11146        1.74550      114.40984
O         64.40332        1.43356      115.55547
C         65.94326        0.44285      113.26815
C         66.34453       -0.67036      112.27203
C         66.78111        1.71429      113.01708
C         66.01761       -0.39911      110.80517
H         63.01010       -0.62716      112.52772
H         64.18299        1.25581      112.31486
H         66.21234        0.05959      114.26521
H         65.83139       -1.59902      112.56053
H         67.43689       -0.86094      112.36655
H         66.58689        2.48080      113.79446
H         67.86575        1.47621      113.04965
H         66.54182        2.16160      112.02967
H         66.34108       -1.27315      110.20031
H         64.92529       -0.27032      110.66422
H         66.55423        0.49551      110.43238
N         63.57858        2.97558      114.15507
C         63.43116        3.98338      115.20277
C         61.98985        4.30224      115.54093
O         61.79891        5.07849      116.46727
C         64.23260        5.26340      114.85920
C         63.70574        6.00672      113.62722
O         65.57896        4.92437      114.65333
H         63.30598        3.21248      113.19016
H         63.85869        3.59689      116.14886
H         64.14924        5.94724      115.73906
H         66.12217        5.71232      114.91894
H         62.64397        6.29761      113.76889
H         64.30078        6.93210      113.47531
H         63.79762        5.38444      112.71432
N         60.92230        3.75428      114.88371
C         59.55511        4.04549      115.30875
C         59.37345        3.47691      116.70869
O         59.34050        2.26312      116.84801
C         58.52516        3.47227      114.30478
C         57.08497        3.81415      114.70343
O         58.78653        4.01145      113.03361
H         61.07924        3.12518      114.08291
H         59.43404        5.15252      115.31800
H         58.64551        2.36300      114.27245
H         58.38267        3.39560      112.36741
H         56.83513        3.38207      115.69469
H         56.94596        4.91571      114.74047
H         56.37997        3.39298      113.95516
N         59.35810        4.31079      117.79353
C         59.37937        3.88349      119.19356
C         60.62895        3.07026      119.50709
O         60.83528        2.02945      118.90831
C         58.09681        3.14562      119.61442
C         56.87132        4.06029      119.46630
C         55.63136        3.45523      120.13119
C         54.43697        4.41287      120.01813
N         53.27458        3.88966      120.73387
H         59.40281        5.32704      117.62398
H         59.42221        4.80104      119.82269
H         58.21007        2.88627      120.69104
H         57.95098        2.20236      119.04578
H         56.67930        4.25839      118.38894
H         57.08198        5.02824      119.97331
H         55.85309        3.28709      121.20864
H         55.38038        2.47994      119.66083
H         54.18053        4.56041      118.94553
H         54.70889        5.40149      120.45229
H         52.99494        2.96180      120.34169
H         53.49736        3.79156      121.75152
H         52.47892        4.55985      120.62845
N         61.50355        3.48083      120.46883
C         62.75737        2.78495      120.76012
C         63.78316        2.96971      119.60378
O         63.51976        2.03023      118.60090
C         63.35265        3.22737      122.11834
C         62.43744        2.83630      123.29012
C         63.03157        3.25943      124.60226
O         63.23088        4.44134      124.83483
O         63.33488        2.33714      125.53533
H         61.26895        4.32065      121.01920
H         62.57029        1.69396      120.88690
H         63.53231        4.31514      122.15898
H         64.32984        2.71412      122.26114
H         62.29887        1.73271      123.29089
H         61.44081        3.31442      123.18478
N         63.74053        4.30574      118.97721
C         64.09491        5.42405      119.84679
H         63.24955        5.67198      120.51720
H         65.02863        5.21525      120.41124
H         64.25202        6.33215      119.22542
H         64.44089        4.29723      118.20678
Ca        64.94296        0.20690      118.63594
O         64.31216       -1.54369      121.18275
H         63.50856       -1.90005      120.72739
H         64.10443       -0.58858      121.34247
O         67.43138        0.40084      120.60146
H         66.79972       -0.29338      120.91559
H         68.14181       -0.10756      120.13722
O         62.27037       -0.47665      118.23489
H         61.95511       -0.36865      119.16605
H         61.59747       -0.01107      117.67747

Ca 1.0



