%chk=apoCaM-CA-Ng.loop2.water4.frame782.chk
%nprocshared=20
%mem=10GB
%nosave
#b3lyp/svp scf=(tight,noincore,xqc) Test 
#IOP(5/87=12) Density=Current Pop=(MK,readradii) iop(6/33=2) iop(6/42=6)

apoCaM-CA-Ng.loop2.water4.frame782 

   -2  1 
C        115.81596       -4.63234        9.26949
C        116.17479       -5.92196        9.94491
O        117.22522       -5.99570       10.56736
H        114.86337       -4.24437        9.68560
H        116.61154       -3.87197        9.42589
H        115.69904       -4.80286        8.17859
N        115.34848       -7.00177        9.84360
C        115.66544       -8.28552       10.45822
C        115.63616       -8.14293       11.96661
O        114.56433       -7.91539       12.51343
C        114.66131       -9.36262        9.99148
C        115.01514      -10.74033       10.48511
O        115.04625      -11.00931       11.80457
O        115.25775      -11.63029        9.68578
H        114.48821       -6.90800        9.28082
H        116.67680       -8.58912       10.10568
H        114.65522       -9.37517        8.87917
H        113.63436       -9.10383       10.33220
N        116.78210       -8.23285       12.70422
C        116.79118       -8.08092       14.15974
C        116.19734       -6.73629       14.56978
O        116.03660       -5.88535       13.70602
C        118.23349       -8.21197       14.68085
H        117.67204       -8.40368       12.21019
H        116.15701       -8.89308       14.57622
H        118.30434       -8.12337       15.78071
H        118.65095       -9.19978       14.39320
H        118.87092       -7.41579       14.23830
N        115.79050       -6.44317       15.83923
C        115.87381       -7.31591       17.00255
C        114.48680       -7.67073       17.52669
O        113.67016       -6.79124       17.75837
C        116.76478       -6.66084       18.08355
C        116.37073       -5.26030       18.47019
O        117.22470       -4.24076       18.25452
O        115.29495       -5.03919       18.99628
H        115.37327       -5.51378       15.99259
H        116.36693       -8.27353       16.75914
H        117.80064       -6.61528       17.68448
H        116.78177       -7.30238       18.99156
N        114.19233       -8.97565       17.79646
C        112.95828       -9.43483       18.41453
C        112.40637      -10.64905       17.68953
O        113.18172      -11.56078       17.43829
H        114.92624       -9.68437       17.64634
H        112.22200       -8.61652       18.54255
H        113.22656       -9.78867       19.43223
N        111.08488      -10.82241       17.38947
C        110.02346       -9.87547       17.72573
C        110.11614       -8.66758       16.79424
O        110.76743       -8.78118       15.76200
C        108.66573      -10.62820       17.64258
C        107.46472       -9.98417       18.29302
N        106.29067      -10.65684       18.32806
O        107.54153       -8.89183       18.82838
H        110.82092      -11.72791       16.96640
H        110.17149       -9.58044       18.78707
H        108.79404      -11.58657       18.19478
H        108.43948      -10.87732       16.58244
H        106.20914      -11.59573       17.90999
H        105.46568      -10.24872       18.79204
N        109.55463       -7.46097       17.09790
C        109.73634       -6.32061       16.21517
C        109.05540       -5.06387       16.71492
O        107.83429       -5.02248       16.75443
H        109.04664       -7.33243       17.98091
H        109.32900       -6.55374       15.20719
H        110.82846       -6.14037       16.10776
N        109.80299       -3.97865       17.06687
C        109.26132       -2.65105       17.38310
C        110.18877       -1.56301       16.82481
O        111.19732       -1.90054       16.21825
C        108.96763       -2.49860       18.89821
C        107.77631       -3.36197       19.33963
O        110.10741       -2.82298       19.64660
H        110.82714       -4.08532       17.02624
H        108.30934       -2.49590       16.82904
H        108.67933       -1.44324       19.09455
H        109.93056       -2.54150       20.58239
H        107.98686       -4.44338       19.22268
H        107.54453       -3.17107       20.40854
H        106.87497       -3.09350       18.74520
N        109.88354       -0.23202       16.93087
C        110.63717        0.80346       16.22032
C        111.40513        1.69790       17.18813
O        110.80382        2.35265       18.02782
C        109.69349        1.64322       15.30378
C        110.52811        2.64541       14.45625
C        108.85633        0.72067       14.39294
C        109.69529        3.61559       13.61884
H        109.05329        0.05904       17.46809
H        111.37321        0.32270       15.54417
H        108.98966        2.21148       15.95185
H        111.21489        2.08696       13.78454
H        111.14199        3.27543       15.13093
H        108.14055        1.30339       13.77973
H        109.51259        0.12772       13.72078
H        108.24107        0.02207       14.99776
H        109.03416        4.21619       14.27837
H        110.37822        4.30610       13.07887
H        109.08587        3.08893       12.85844
N        112.76043        1.79469       17.06503
C        113.64053        2.65910       17.83852
C        114.37986        3.64271       16.93201
O        115.16011        4.42238       17.46180
C        114.69012        1.78700       18.54517
C        114.07550        0.83319       19.52038
O        113.63701        1.23699       20.58530
O        113.97320       -0.47065       19.20556
H        113.22002        1.22296       16.35329
H        113.06563        3.24488       18.58976
H        115.44404        2.39894       19.08757
H        115.23092        1.21227       17.76413
N        114.17840        3.69752       15.57689
C        114.81854        4.68900       14.72307
C        115.37722        4.03178       13.45402
O        114.95339        4.40138       12.36706
C        113.75678        5.78078       14.45390
C        114.26277        7.02317       13.76108
C        113.66905        7.45291       12.56225
C        115.29064        7.79685       14.33228
C        114.09321        8.63544       11.94847
C        115.71493        8.97597       13.71169
C        115.11463        9.39653       12.52253
H        113.47684        3.09207       15.13198
H        115.65846        5.17802       15.25843
H        113.36239        6.11887       15.43770
H        112.90575        5.32917       13.89712
H        112.86676        6.88288       12.11072
H        115.75692        7.49861       15.26251
H        113.62326        8.96640       11.03162
H        116.50265        9.56945       14.15821
H        115.43679       10.31504       12.04913
N        116.34532        3.05619       13.49479
C        116.97380        2.46731       12.31118
C        116.06433        1.69833       11.36643
O        116.55591        1.24751       10.34010
C        117.98979        1.47561       12.89389
C        118.36542        2.13794       14.19719
C        117.00368        2.60773       14.70401
H        117.48045        3.29546       11.76618
H        117.46598        0.52916       13.17042
H        118.83194        1.22235       12.21382
H        118.92582        1.49216       14.90599
H        118.98336        3.03182       13.95234
H        116.41779        1.76313       15.13066
H        117.15886        3.40551       15.45859
N        114.75578        1.45636       11.65534
C        113.88879        0.69731       10.77058
C        113.34617        1.63555        9.71925
O        113.54389        1.38399        8.53876
C        112.73940       -0.02596       11.51820
C        113.20118       -1.12689       12.50637
C        113.63515       -0.65287       13.86719
O        114.00599       -1.55684       14.79613
O        113.56290        0.51911       14.17602
H        114.35083        1.85142       12.50685
H        114.47031       -0.11328       10.27279
H        112.16060       -0.55254       10.72695
H        112.04017        0.67921       12.01541
H        113.99481       -1.74630       12.03708
H        112.32889       -1.78621       12.70534
N        112.68071        2.76628       10.08929
C        112.16941        3.73899        9.14637
H        111.07901        3.86679        9.30534
H        112.67516        4.71275        9.31815
H        112.34035        3.43783        8.09152
H        112.55095        2.96825       11.09234
Ca       113.97283       -1.07324       17.01557
O        116.31849       -3.18810       14.98709
H        115.63075       -3.45285       14.32607
H        116.58640       -2.27812       14.70593
O        113.25959       -4.01461       15.89689
H        113.26392       -4.31753       16.83896
H        112.98063       -4.80774       15.37488
O        113.45596       -3.12047       19.63242
H        113.49482       -2.85524       20.58527
H        112.51508       -3.37858       19.47909
O        117.12471       -0.88701       17.13412
H        117.84828       -1.29761       16.59782
H        117.27911        0.08687       17.04906

Ca 1.0



