%chk=apoCaM-CA-Ng.loop2.water4.frame1144.chk
%nprocshared=20
%mem=10GB
%nosave
#b3lyp/svp scf=(tight,noincore,xqc) Test 
#IOP(5/87=12) Density=Current Pop=(MK,readradii) iop(6/33=2) iop(6/42=6)

apoCaM-CA-Ng.loop2.water4.frame1144 

   -2  1 
C         92.20219       67.40931       84.99139
C         91.81938       67.65806       86.42723
O         90.78188       67.16452       86.84349
H         93.18488       66.89944       84.92411
H         91.44565       66.77091       84.48835
H         92.24568       68.38108       84.45251
N         92.55842       68.44668       87.26074
C         93.82157       69.07475       86.88920
C         93.65306       70.54001       86.56452
O         92.69098       71.14684       87.00657
C         94.93062       68.81387       87.93669
C         94.67845       69.21000       89.38429
O         95.54715       68.95656       90.20334
O         93.51551       69.73242       89.83432
H         92.17578       68.62834       88.19759
H         94.18924       68.62718       85.94534
H         95.86027       69.32170       87.59727
H         95.12868       67.72033       87.94145
N         94.52318       71.12215       85.67739
C         94.53075       72.51031       85.21971
C         95.23393       73.38614       86.22867
O         96.26858       73.95327       85.90506
C         93.14261       73.03875       84.82867
H         95.24852       70.51870       85.25948
H         95.14705       72.54334       84.29144
H         92.67331       72.36105       84.08478
H         92.46868       73.14329       85.70212
H         93.24299       74.04658       84.37227
N         94.74440       73.51082       87.48682
C         95.39019       74.26261       88.54703
C         95.81180       73.34785       89.68511
O         95.46490       72.17787       89.69052
C         94.46268       75.40427       89.01520
C         92.95930       75.14418       89.00320
O         92.33972       74.11462       89.62641
O         92.25431       75.92547       88.38305
H         93.87376       73.02938       87.72062
H         96.34265       74.71384       88.19040
H         94.61875       76.24690       88.30390
H         94.78739       75.77501       90.00916
N         96.65993       73.80175       90.65281
C         97.10304       72.95361       91.74726
C         96.08219       72.86848       92.86115
O         96.27896       72.06585       93.76265
H         97.05305       74.75212       90.57683
H         98.03147       73.36758       92.19601
H         97.35362       71.94295       91.35526
N         95.01366       73.71646       92.92225
C         94.06831       73.70257       94.03309
C         93.17496       72.48029       93.97926
O         93.14099       71.77434       92.98005
C         93.19566       74.98595       94.02802
C         93.90619       76.17387       94.64640
N         95.09146       76.63498       94.18255
O         93.39364       76.72425       95.61042
H         94.89955       74.43302       92.19168
H         94.62814       73.66521       94.99464
H         92.28072       74.82436       94.63987
H         92.84848       75.20982       92.99438
H         95.57028       76.20078       93.38510
H         95.54902       77.43454       94.64588
N         92.40390       72.18797       95.06240
C         91.42271       71.11657       95.06053
C         90.72638       70.96584       96.40999
O         91.23109       71.48019       97.39840
H         92.50228       72.78818       95.89485
H         91.89540       70.14380       94.79698
H         90.68548       71.39275       94.28250
N         89.55997       70.27212       96.57097
C         88.79592       69.65441       95.49157
C         87.41720       70.27166       95.35503
O         86.97527       71.03070       96.20716
C         88.66852       68.12973       95.70747
C         89.99946       67.43556       95.43557
O         88.24978       67.83725       97.01741
H         89.17063       70.20868       97.52535
H         89.28174       69.82037       94.51302
H         87.94870       67.69173       94.97827
H         87.30165       68.11945       97.09377
H         90.79308       67.81215       96.11294
H         89.88383       66.34056       95.57599
H         90.30353       67.61939       94.38136
N         86.71571       70.00693       94.21703
C         85.39315       70.53479       93.89150
C         84.50612       69.39112       93.36112
O         85.05705       68.35487       93.01360
C         85.55226       71.70288       92.85707
C         86.34701       71.26069       91.59425
C         86.21564       72.91047       93.54924
C         86.54730       72.36412       90.55429
H         87.18731       69.43062       93.50389
H         84.93776       70.94790       94.80771
H         84.55406       72.04616       92.52813
H         85.80338       70.42320       91.10733
H         87.36180       70.90796       91.87320
H         85.62749       73.20640       94.44450
H         87.25444       72.67629       93.86206
H         86.23451       73.79575       92.88242
H         85.57511       72.77626       90.22064
H         87.17779       73.18326       90.95697
H         87.08161       71.94310       89.67698
N         83.14356       69.45634       93.22236
C         82.27905       70.52272       93.72599
C         80.88630       70.51003       93.07924
O         80.54314       69.59469       92.34336
C         82.13636       70.41730       95.27214
C         81.56271       69.09714       95.72114
O         80.39822       69.06145       96.39614
O         82.16435       68.05631       95.50669
H         82.69162       68.64195       92.77768
H         82.71410       71.49598       93.45648
H         81.48619       71.23644       95.64344
H         83.10754       70.53773       95.78132
N         80.02613       71.53394       93.35022
C         78.63680       71.60810       92.90818
C         78.32733       72.98484       92.30601
O         78.65879       73.96525       92.96001
C         77.76725       71.44382       94.17011
C         76.29711       71.52425       93.85299
C         75.54229       72.62194       94.29747
C         75.67372       70.51830       93.09734
C         74.18651       72.71805       93.97863
C         74.31536       70.61644       92.78330
C         73.57313       71.71681       93.22142
H         80.35478       72.28203       93.97920
H         78.38433       70.78082       92.21578
H         78.04588       72.24907       94.88664
H         77.98248       70.47364       94.66816
H         76.00684       73.41136       94.87569
H         76.24085       69.66519       92.74518
H         73.61401       73.57210       94.31550
H         73.84019       69.84215       92.19565
H         72.52323       71.79486       92.97347
N         77.60727       73.17872       91.15068
C         77.06335       72.15684       90.26626
C         78.13958       71.30912       89.64576
O         78.00473       70.09333       89.63415
C         76.30118       72.95486       89.19592
C         75.84689       74.15981       89.98961
C         77.12408       74.48829       90.75370
H         76.32848       71.53982       90.81776
H         77.00056       73.33680       88.41787
H         75.49027       72.38507       88.69075
H         75.43696       74.99746       89.38643
H         75.06921       73.82811       90.71834
H         77.87327       74.96134       90.08038
H         76.88547       75.15639       91.60920
N         79.26111       71.89291       89.13438
C         80.32856       71.11603       88.53608
C         79.99822       70.93197       87.06173
O         79.96680       71.94051       86.36970
C         81.72580       71.78518       88.67463
C         82.22187       72.00619       90.12142
C         81.73289       73.25899       90.81117
O         82.13881       73.51972       92.06734
O         81.05165       74.08669       90.23064
H         79.33908       72.91634       89.15902
H         80.42351       70.17078       89.09831
H         81.80754       72.73434       88.10204
H         82.43410       71.06133       88.21318
H         83.32515       72.10708       90.09251
H         81.99514       71.10405       90.72041
N         79.71719       69.73621       86.46301
C         79.64138       68.43566       87.09891
H         78.62244       68.02202       86.94439
H         80.37551       67.75391       86.62277
H         79.83020       68.43872       88.18218
H         79.51451       69.74916       85.45117
Ca        92.86701       71.90964       89.76505
O         91.23249       69.52405       91.89943
H         91.53267       68.60872       91.67008
H         90.26999       69.42512       92.10908
O         89.72157       72.97618       88.26647
H         90.13253       73.38998       87.46659
H         88.87889       72.57646       87.93415
O         90.15212       72.81324       91.46179
H         89.79288       72.73742       92.38085
H         89.84865       73.70300       91.15072
O         90.15453       70.00987       89.09266
H         89.67890       70.19315       88.24450
H         89.79864       69.13534       89.39038

Ca 1.0



