%chk=apoCaM-CA-Ng.loop2.water4.frame366.chk
%nprocshared=20
%mem=10GB
%nosave
#b3lyp/svp scf=(tight,noincore,xqc) Test 
#IOP(5/87=12) Density=Current Pop=(MK,readradii) iop(6/33=2) iop(6/42=6)

apoCaM-CA-Ng.loop2.water4.frame366 

   -2  1 
C         34.74306       81.99873       28.34171
C         33.72266       81.29729       27.49338
O         32.83503       81.95173       26.96538
H         35.75132       81.85251       27.89920
H         34.53526       83.08900       28.39082
H         34.73643       81.58553       29.36959
N         33.81099       79.95166       27.29973
C         32.91756       79.20228       26.42404
C         32.16123       78.12640       27.19305
O         32.32211       76.94816       26.90504
C         33.70763       78.67031       25.19950
C         34.83597       77.70451       25.47457
O         35.49583       77.28261       24.53859
O         35.12917       77.28806       26.72028
H         34.57698       79.44683       27.76718
H         32.14112       79.87087       25.99102
H         34.13764       79.54842       24.66905
H         32.99303       78.17529       24.50612
N         31.23779       78.48196       28.13573
C         30.37955       77.51593       28.81888
C         30.31511       77.78900       30.31300
O         29.91744       78.87825       30.70494
C         28.97468       77.59095       28.22109
H         31.06483       79.48661       28.29594
H         30.73881       76.47786       28.64376
H         28.31112       76.84515       28.70907
H         28.54118       78.60544       28.34736
H         29.02170       77.35660       27.13541
N         30.67310       76.82601       31.21101
C         30.62569       77.02095       32.66163
C         29.21154       77.16223       33.22470
O         29.11570       77.35947       34.42705
C         31.30005       75.83317       33.38592
C         32.74986       75.70919       33.02793
O         33.17087       74.69709       32.49154
O         33.59803       76.70801       33.33014
H         31.02732       75.92907       30.84486
H         31.19200       77.94710       32.91083
H         30.75804       74.89418       33.13584
H         31.25306       75.97737       34.48778
N         28.08055       77.01261       32.47017
C         26.73214       77.06734       33.02751
C         26.21040       78.48390       33.20404
O         25.21794       78.81820       32.57198
H         28.16575       76.74055       31.48119
H         26.68195       76.49365       33.97839
H         26.04851       76.55454       32.31432
N         26.81563       79.37092       34.04267
C         26.37623       80.74646       34.24903
C         27.43232       81.68175       33.66859
O         28.43903       81.19239       33.17062
C         26.14959       80.93612       35.76877
C         25.60044       82.27975       36.16976
N         24.38832       82.69258       35.73205
O         26.25226       82.99846       36.91283
H         27.64990       79.08486       34.56179
H         25.42602       80.93726       33.70482
H         27.11520       80.76061       36.29401
H         25.42818       80.16687       36.12146
H         23.81831       82.09656       35.11495
H         24.01594       83.61067       36.01678
N         27.26257       83.03586       33.65406
C         28.22402       83.93541       33.04068
C         28.83802       84.85594       34.06046
O         29.45257       84.37458       35.00212
H         26.41427       83.45530       34.05674
H         27.71361       84.50696       32.23588
H         29.05934       83.38208       32.56224
N         28.76226       86.20614       33.89693
C         29.44029       87.15958       34.77360
C         30.94256       86.90083       34.82107
O         31.51520       87.00946       35.89637
C         29.14431       88.63682       34.38790
C         29.51979       89.02196       32.94664
O         27.79704       88.95330       34.63646
H         28.22839       86.55888       33.09082
H         29.05247       87.03032       35.80995
H         29.75111       89.27660       35.06679
H         27.23707       88.45027       33.99101
H         30.58043       88.81179       32.74338
H         28.91168       88.47347       32.19993
H         29.34785       90.10817       32.79556
N         31.62584       86.47580       33.71833
C         33.04477       86.12058       33.73582
C         33.17463       84.60800       33.61505
O         32.20582       83.93874       33.28051
C         33.78338       86.91840       32.60491
C         33.76496       88.44986       32.86317
C         35.22168       86.45483       32.31284
C         34.53545       88.91020       34.10546
H         31.10801       86.33750       32.83648
H         33.49052       86.35445       34.72354
H         33.22170       86.74032       31.65939
H         32.72441       88.79844       32.96665
H         34.19509       88.96890       31.97862
H         35.22791       85.40423       31.95966
H         35.65403       87.06147       31.48790
H         35.87471       86.54549       33.20299
H         34.10812       88.47565       35.03081
H         35.60942       88.64528       34.03344
H         34.46466       90.01494       34.18877
N         34.35391       83.99874       33.93675
C         34.57026       82.55932       33.86452
C         35.07823       82.05298       35.22217
O         35.99506       81.24718       35.26525
C         35.58782       82.35453       32.72185
C         35.81643       80.94870       32.26491
O         35.13723       79.90905       32.77615
O         36.61015       80.75060       31.36014
H         35.14933       84.58108       34.23947
H         33.62103       82.04088       33.60936
H         36.55467       82.80985       33.01665
H         35.21920       82.90241       31.82737
N         34.59564       82.59788       36.37941
C         35.15819       82.35856       37.71651
C         36.67221       82.61515       37.70977
O         37.06446       83.66757       37.22483
C         34.49852       83.35865       38.71072
C         35.17516       83.42720       40.06668
C         35.95363       84.55710       40.38414
C         35.05899       82.39375       41.01172
C         36.61489       84.64554       41.60948
C         35.71724       82.49156       42.24602
C         36.49759       83.61403       42.54116
H         33.84304       83.29875       36.29363
H         34.93395       81.32204       38.03244
H         33.41110       83.15735       38.82911
H         34.58345       84.36544       38.24494
H         36.06535       85.36655       39.67337
H         34.46056       81.51778       40.79751
H         37.22074       85.51470       41.83261
H         35.62816       81.69659       42.97488
H         37.01244       83.68716       43.49071
N         37.58839       81.75387       38.27459
C         39.00719       82.08535       38.40051
C         39.78324       82.04830       37.10013
O         40.92128       82.49678       37.07641
C         39.56397       80.99779       39.32873
C         38.34499       80.61970       40.14566
C         37.27674       80.57768       39.06020
H         39.06247       83.08454       38.88929
H         39.81756       80.09120       38.72879
H         40.46706       81.29827       39.90124
H         38.45284       79.67550       40.72028
H         38.11455       81.45394       40.84531
H         37.43024       79.67792       38.42192
H         36.26913       80.54797       39.50798
N         39.26810       81.42390       36.00770
C         39.98637       81.26086       34.75152
C         40.27953       82.61522       34.14666
O         41.43107       82.88453       33.83538
C         39.16912       80.38066       33.78071
C         39.04329       78.93717       34.31060
C         38.21178       78.07724       33.40900
O         38.53745       77.90144       32.24577
O         37.11354       77.46792       33.89585
H         38.32982       81.01190       36.08359
H         40.95124       80.73280       34.92943
H         39.68270       80.34244       32.79466
H         38.16546       80.82769       33.63690
H         38.57614       78.92659       35.31733
H         40.05538       78.48633       34.39582
N         39.28616       83.53351       33.99255
C         39.50111       84.85730       33.44547
H         40.55064       85.01572       33.11877
H         38.83503       85.00547       32.57073
H         39.25763       85.61630       34.21824
H         38.33527       83.29890       34.30943
Ca        35.44058       77.96785       31.67091
O         33.81741       76.53654       29.77768
H         34.12452       77.29103       29.21496
H         33.35794       75.92419       29.15168
O         37.23491       76.02273       30.06087
H         37.44105       75.27464       30.67550
H         36.69965       75.61204       29.33621
O         32.99010       80.03251       30.62293
H         32.75056       80.45705       31.48449
H         32.81240       79.06944       30.76244
O         36.91456       78.98218       29.09248
H         37.24325       79.79818       28.63885
H         36.96888       78.27564       28.40231

Ca 1.0



