%chk=apoCaM-CA-Ng.loop3.water4.frame162.chk
%nprocshared=20
%mem=10GB
%nosave
#b3lyp/svp scf=(tight,noincore,xqc) Test 
#IOP(5/87=12) Density=Current Pop=(MK,readradii) iop(6/33=2) iop(6/42=6)

apoCaM-CA-Ng.loop3.water4.frame162 

   0  1 
C         40.38223       68.45029       37.60890
C         38.98717       67.93721       37.39858
O         38.11443       68.22511       38.20506
H         40.70203       69.05220       36.73317
H         40.44203       69.07973       38.52239
H         41.07416       67.58891       37.72964
N         38.71523       67.13944       36.32848
C         37.41193       66.52063       36.10234
C         36.29112       67.53804       35.96349
O         36.24841       68.26559       34.98077
C         37.42458       65.58068       34.87150
C         37.74642       66.27311       33.56645
O         36.91929       66.30354       32.66939
O         38.95143       66.83940       33.36844
H         39.49614       66.91996       35.69461
H         37.19945       65.88534       36.99045
H         36.41954       65.10882       34.79267
H         38.16814       64.77173       35.02808
N         35.34045       67.63279       36.93740
C         34.18786       68.52110       36.86574
C         34.49847       69.74930       37.68045
O         33.84309       70.02842       38.67660
C         32.92759       67.78762       37.37388
C         32.66866       66.48554       36.60856
C         31.44369       65.75379       37.17213
C         31.26585       64.35025       36.57090
N         31.05548       64.37960       35.12339
H         35.45453       67.07138       37.79569
H         34.00565       68.85479       35.81949
H         32.04616       68.46113       37.28318
H         33.06768       67.53589       38.44940
H         33.55173       65.82056       36.72090
H         32.52319       66.71680       35.53225
H         30.52985       66.36492       37.00538
H         31.57657       65.62115       38.26890
H         30.38628       63.87373       37.05721
H         32.16083       63.73056       36.80376
H         31.90739       64.73465       34.63378
H         30.87607       63.40511       34.79032
H         30.23007       64.97739       34.89051
N         35.54887       70.52466       37.30155
C         36.01031       71.66862       38.06496
C         34.92317       72.73837       38.15157
O         33.94912       72.67636       37.41242
C         37.35557       72.13629       37.44869
C         38.01452       73.23283       38.20951
O         37.47727       74.45492       38.16486
O         39.02600       73.02770       38.85979
H         36.07170       70.25669       36.45527
H         36.21633       71.30709       39.09723
H         37.22397       72.45627       36.39084
H         38.03557       71.25498       37.45861
N         34.99364       73.71305       39.10135
C         33.97058       74.72463       39.29480
C         33.79308       75.56894       38.06294
O         32.68546       75.63055       37.54748
H         35.79207       73.72277       39.75011
H         34.26736       75.38570       40.13761
H         33.00944       74.23377       39.56558
N         34.85363       76.23672       37.52610
C         34.75434       77.04873       36.32071
C         35.56219       76.43498       35.18329
O         36.17031       77.15840       34.40560
C         35.12449       78.51879       36.62196
C         36.57501       78.71247       36.99236
N         37.37502       79.49903       36.24398
O         37.03388       78.16925       37.98160
H         35.76631       76.13900       37.98128
H         33.70041       77.05479       35.96955
H         34.49338       78.89175       37.45731
H         34.89173       79.13196       35.72568
H         37.02128       79.98335       35.40779
H         38.35572       79.62210       36.51337
N         35.54199       75.08557       34.98738
C         36.12293       74.42499       33.83068
C         37.63161       74.49184       33.68318
O         38.09323       73.97476       32.67860
H         35.01835       74.49356       35.64826
H         35.65511       74.85331       32.91830
H         35.85520       73.34600       33.87118
N         38.46492       75.09944       34.58085
C         39.92261       75.14510       34.41164
C         40.52174       76.20242       35.32471
O         40.37155       76.11042       36.53489
C         40.60264       73.79465       34.75718
C         40.27540       72.64738       33.83698
C         40.65289       72.68334       32.48262
C         39.60278       71.51817       34.33129
C         40.34531       71.61249       31.63725
C         39.29372       70.45135       33.48492
C         39.66215       70.49680       32.13235
O         39.36664       69.47887       31.29988
H         38.05309       75.58281       35.39107
H         40.16026       75.43272       33.36322
H         40.32387       73.53425       35.79997
H         41.70798       73.92340       34.72612
H         41.18113       73.53928       32.08119
H         39.31292       71.46469       35.37096
H         40.63563       71.65020       30.59471
H         38.76833       69.59316       33.88401
H         38.88149       68.69646       31.59504
N         41.22623       77.23874       34.79011
C         41.84908       78.30053       35.57081
C         41.09412       79.58071       35.28324
O         40.61211       80.18052       36.23222
C         43.37586       78.36127       35.27616
C         44.08337       77.02370       35.63861
C         44.06494       79.53081       36.00400
C         44.10557       76.68360       37.13693
H         41.32035       77.28927       33.76440
H         41.73587       78.11421       36.65731
H         43.51045       78.52134       34.18339
H         45.13862       77.07122       35.29278
H         43.59611       76.18784       35.09271
H         43.66514       80.49787       35.66562
H         43.91440       79.47574       37.10180
H         45.15371       79.53226       35.78329
H         44.66942       77.44397       37.71520
H         43.08338       76.60017       37.55334
H         44.61889       75.71120       37.28609
N         40.86851       80.02501       34.00926
C         39.93766       81.12162       33.74012
C         40.34943       82.44162       34.36885
O         39.51036       83.32806       34.43526
C         39.66161       81.27681       32.23852
O         40.83244       81.62858       31.54911
H         41.27775       79.50799       33.21704
H         38.97114       80.83641       34.21073
H         38.89227       82.06006       32.06542
H         39.23055       80.32346       31.84756
H         41.10228       80.84071       31.00837
N         41.59188       82.62707       34.90321
C         41.97646       83.78971       35.68671
C         41.10823       83.85640       36.92851
O         40.38586       84.82612       37.12392
C         41.95867       85.07263       34.84423
H         42.29645       81.89234       34.79595
H         43.02822       83.65733       36.02805
H         42.32139       85.92433       35.45904
H         42.64186       84.95591       33.97642
H         40.94486       85.31956       34.47260
N         41.15894       82.83809       37.83518
C         40.38163       82.84635       39.07062
C         40.88529       81.82956       40.08019
O         41.67834       80.95978       39.74363
C         38.89433       82.59374       38.77878
H         41.83032       82.07546       37.65582
H         40.52471       83.84180       39.54599
H         38.48796       83.35215       38.07947
H         38.76354       81.58891       38.31919
H         38.29609       82.63136       39.71369
N         40.50524       81.94883       41.38588
C         40.97483       81.09332       42.47151
C         42.49668       81.08003       42.49541
O         43.10143       80.01505       42.46824
C         40.40494       79.66932       42.33278
C         38.87700       79.64250       42.22723
C         38.45804       78.25890       41.85635
O         37.93377       78.06488       40.63866
O         38.67758       77.30985       42.59220
H         39.88103       82.72963       41.64347
H         40.60368       81.51950       43.43029
H         40.72382       79.04504       43.19764
H         40.82499       79.21727       41.40962
H         38.55698       80.31583       41.40197
H         38.38766       79.97913       43.16549
N         43.18771       82.25025       42.47944
C         44.63147       82.27624       42.39896
H         45.07196       81.78530       43.29144
H         44.96501       81.74198       41.48172
H         44.98963       83.32502       42.34246
H         42.67596       83.14536       42.47771
Ca        37.91607       76.07233       39.63167
O         41.10723       76.14574       41.03444
H         41.12059       75.99045       42.01196
H         42.06204       76.17801       40.77456
O         41.81769       74.38685       38.49767
H         42.76057       74.26658       38.22438
H         41.31943       73.75887       37.91958
O         37.79911       74.01576       41.83030
H         37.43446       73.16224       41.48575
H         37.03949       74.64916       41.77858
O         40.27884       78.04117       38.82114
H         39.87082       78.85252       38.42872
H         41.14356       78.35105       39.18892

Ca 1.0



