%chk=apoCaM-CA-Ng.loop3.water2.frame713.chk
%nprocshared=20
%mem=10GB
%nosave
#b3lyp/svp scf=(tight,noincore,xqc) Test 
#IOP(5/87=12) Density=Current Pop=(MK,readradii) iop(6/33=2) iop(6/42=6)

apoCaM-CA-Ng.loop3.water2.frame713 

   0  1 
C         68.60298      -19.65040       -0.65192
C         68.52668      -21.09213       -0.24683
O         69.16592      -21.91896       -0.88200
H         69.65769      -19.30811       -0.59526
H         68.23470      -19.53489       -1.69191
H         67.99020      -19.00908        0.01632
N         67.77264      -21.46896        0.82260
C         67.70563      -22.84594        1.28865
C         67.07240      -23.73381        0.22052
O         65.94158      -23.47501       -0.16826
C         66.91615      -22.91157        2.61336
C         67.04992      -24.23272        3.31260
O         66.41402      -24.44378        4.33195
O         67.87595      -25.18387        2.84454
H         67.26142      -20.74068        1.34553
H         68.73860      -23.16923        1.50793
H         65.84741      -22.69176        2.40694
H         67.28899      -22.14311        3.31918
N         67.75884      -24.78503       -0.31574
C         67.22884      -25.62484       -1.39059
C         65.92402      -26.31232       -1.00039
O         64.97861      -26.25448       -1.77403
C         68.28667      -26.63797       -1.91108
C         68.70437      -27.73840       -0.91711
C         69.69898      -28.75628       -1.50882
C         71.07152      -28.15586       -1.84920
N         71.99732      -29.18923       -2.31408
H         68.71099      -24.97075        0.03050
H         67.02132      -24.96793       -2.26646
H         69.17969      -26.05792       -2.22636
H         67.87061      -27.13455       -2.81602
H         67.80203      -28.31888       -0.64318
H         69.13483      -27.29182        0.00422
H         69.25978      -29.22654       -2.41604
H         69.85153      -29.55248       -0.74779
H         71.49180      -27.68804       -0.93784
H         70.97243      -27.37984       -2.63764
H         72.92272      -28.75003       -2.52548
H         72.13329      -29.91196       -1.56999
H         71.62948      -29.64087       -3.18257
N         65.79639      -26.95513        0.19630
C         64.59149      -27.67246        0.62275
C         63.87203      -26.96747        1.77490
O         62.84382      -27.46718        2.20958
C         64.94605      -29.15144        0.92265
C         66.07873      -29.28952        1.90074
O         67.15314      -29.73307        1.52747
O         65.96841      -28.80567        3.14584
H         66.59284      -26.91978        0.84961
H         63.84144      -27.69435       -0.19896
H         65.26641      -29.61297       -0.03799
H         64.05456      -29.70648        1.28374
N         64.28025      -25.75091        2.23907
C         63.49906      -24.93138        3.15467
C         63.41096      -25.38967        4.59820
O         62.76311      -24.66927        5.34532
H         65.10873      -25.30711        1.82475
H         62.47201      -24.81648        2.74263
H         63.94754      -23.91597        3.18027
N         63.99894      -26.52569        5.08823
C         63.87625      -26.91443        6.49993
C         65.22964      -27.15950        7.16370
O         66.25134      -27.14682        6.49120
C         62.95955      -28.15532        6.66346
C         63.59127      -29.48037        6.29045
N         63.89841      -29.79294        5.01276
O         63.81308      -30.29673        7.17323
H         64.52588      -27.13033        4.44824
H         63.37796      -26.09594        7.06292
H         62.00511      -28.01041        6.11183
H         62.69058      -28.21948        7.74011
H         63.68412      -29.15006        4.24193
H         64.33243      -30.70197        4.79168
N         65.28385      -27.45506        8.49718
C         66.48314      -27.90346        9.18920
C         67.59035      -26.87579        9.22630
O         67.40522      -25.80644        9.78749
H         64.40925      -27.44233        9.04256
H         66.83384      -28.83762        8.69955
H         66.22394      -28.16045       10.23871
N         68.78378      -27.15901        8.63435
C         69.92516      -26.25097        8.57850
C         69.97557      -25.63309        7.19148
O         69.04302      -25.83422        6.43165
C         71.22884      -27.01025        8.93921
C         71.36115      -27.30512       10.41918
C         72.38587      -26.67835       11.15641
C         70.49708      -28.19434       11.08088
C         72.53854      -26.92750       12.52092
C         70.65508      -28.44499       12.45030
C         71.67318      -27.81292       13.17395
O         71.81190      -28.06303       14.49181
H         68.87334      -28.04866        8.12116
H         69.80900      -25.39025        9.27360
H         72.09539      -26.37980        8.66659
H         71.32668      -27.94066        8.33897
H         73.07026      -25.98814       10.67797
H         69.70724      -28.70039       10.54358
H         73.33123      -26.43128       13.06767
H         69.98620      -29.13346       12.95061
H         72.50385      -27.64391       15.02421
N         71.00501      -24.80088        6.82923
C         71.06912      -24.03078        5.58787
C         71.05051      -24.92160        4.34821
O         70.13603      -25.71820        4.19779
C         69.94005      -22.95601        5.55396
C         70.04982      -22.01267        4.32468
C         69.91081      -22.13310        6.85875
C         71.32341      -21.16116        4.25022
H         71.77237      -24.63917        7.49368
H         72.03014      -23.47336        5.60593
H         68.95822      -23.47112        5.48055
H         69.18611      -21.31488        4.33865
H         69.98284      -22.61466        3.39705
H         70.87738      -21.61814        7.03603
H         69.09769      -21.37766        6.81965
H         69.70932      -22.78587        7.73387
H         71.27917      -20.52182        3.34392
H         71.41311      -20.49285        5.13039
H         72.23256      -21.78804        4.17102
N         71.98868      -24.79352        3.36874
C         71.93305      -25.55886        2.12491
C         73.20958      -26.33125        1.83263
O         73.20739      -27.11176        0.89490
C         71.64943      -24.58327        0.97303
O         71.46974      -25.26888       -0.23355
H         72.71453      -24.06730        3.47516
H         71.10257      -26.29925        2.16350
H         72.49478      -23.86510        0.87884
H         70.72586      -24.02515        1.21466
H         71.22073      -24.58464       -0.90756
N         74.36480      -26.11254        2.52620
C         75.62064      -26.72167        2.10993
C         75.67194      -28.20510        2.45049
O         74.91996      -28.62999        3.31712
C         76.77765      -25.99285        2.79330
H         74.38582      -25.41858        3.28236
H         75.72328      -26.55412        1.01811
H         76.73619      -24.91025        2.54802
H         76.71840      -26.11441        3.89626
H         77.74394      -26.37696        2.43779
N         76.55111      -29.07466        1.86497
C         77.36136      -28.76953        0.68855
C         78.52926      -29.74301        0.56857
O         78.28064      -30.94090        0.56425
C         76.48884      -28.89773       -0.56871
H         76.53242      -30.05348        2.19324
H         77.73084      -27.73455        0.72905
H         75.62591      -28.20303       -0.53392
H         77.08786      -28.65839       -1.47351
H         76.09052      -29.93082       -0.66653
N         79.83027      -29.34972        0.40434
C         80.28088      -27.96261        0.29380
C         80.24642      -27.20099        1.61489
O         80.50995      -26.00604        1.59556
C         81.71015      -27.89532       -0.30123
C         82.80444      -28.46887        0.62064
C         84.15132      -28.39398       -0.03812
O         84.85424      -29.52028       -0.26387
O         84.62056      -27.31465       -0.36299
H         80.51918      -30.10234        0.25399
H         79.62412      -27.45528       -0.44749
H         81.95488      -26.83150       -0.51877
H         81.71468      -28.44426       -1.26915
H         82.58816      -29.52846        0.86582
H         82.84527      -27.89388        1.57039
N         79.98149      -27.81446        2.80386
C         80.03304      -27.09730        4.06210
H         79.30504      -26.26210        4.07288
H         79.79548      -27.78459        4.90083
H         81.05130      -26.68231        4.21793
H         79.76806      -28.82072        2.83634
Ca        67.52550      -27.27115        3.54950
O         68.44104      -29.38933        5.82958
H         69.31589      -29.77430        6.08874
H         67.85536      -30.17443        5.68584
O         70.25185      -28.85085        3.31584
H         71.20034      -28.79284        3.59421
H         70.28466      -28.92312        2.32887

Ca 1.0



