%chk=apoCaM-CA-Ng.loop1.water3.frame1319.chk
%nprocshared=20
%mem=10GB
%nosave
#b3lyp/svp scf=(tight,noincore,xqc) Test 
#IOP(5/87=12) Density=Current Pop=(MK,readradii) iop(6/33=2) iop(6/42=6)

apoCaM-CA-Ng.loop1.water3.frame1319 

   0  1 
C         38.73860       15.83128       67.80948
C         39.26266       16.04807       69.19684
O         38.88249       17.03324       69.81333
H         37.63113       15.77110       67.83992
H         39.03886       16.68490       67.16445
H         39.13730       14.89586       67.36538
N         40.17504       15.18990       69.74066
C         40.76082       15.39056       71.06311
C         42.18626       15.86707       70.91084
O         43.11375       15.30112       71.47375
C         40.58477       14.14198       71.95700
C         41.24578       12.87333       71.46914
O         41.90351       12.84360       70.44092
O         41.11128       11.74728       72.19436
H         40.51113       14.40582       69.16365
H         40.24324       16.22280       71.58196
H         39.49642       13.94600       72.05927
H         40.98793       14.37080       72.96767
N         42.40608       16.96044       70.13522
C         43.70590       17.57568       69.94486
C         44.16903       18.17717       71.26615
O         45.25255       17.80619       71.69494
C         43.69434       18.56010       68.74390
C         43.23477       17.81223       67.46727
C         43.24707       18.67117       66.20000
C         42.54602       17.96227       65.01906
N         43.16296       16.68130       64.66495
H         41.59392       17.37916       69.66260
H         44.43270       16.78656       69.64053
H         44.72453       18.95067       68.59024
H         43.02490       19.42497       68.92102
H         42.19460       17.45645       67.60508
H         43.89078       16.92934       67.30926
H         44.29426       18.93258       65.93459
H         42.68686       19.61162       66.39241
H         42.57405       18.63681       64.13569
H         41.47636       17.78925       65.27672
H         42.67137       16.29033       63.82861
H         44.17349       16.81448       64.43463
H         43.05715       15.99022       65.44176
N         43.41890       19.01929       72.04869
C         42.08886       19.55912       71.74637
C         41.00201       18.94456       72.61027
O         41.29794       18.20957       73.54207
C         42.10159       21.09778       71.83584
C         42.86178       21.64894       73.02326
O         42.50028       21.48488       74.31769
O         43.87867       22.28405       72.79460
H         43.82097       19.26588       72.96681
H         41.78488       19.30171       70.72167
H         41.07516       21.52076       71.78497
H         42.63959       21.45296       70.92799
N         39.69023       19.13608       72.26305
C         38.58552       18.42129       72.88606
C         38.01828       19.14864       74.07379
O         38.42613       20.26126       74.35611
H         39.48150       19.67944       71.41147
H         38.92329       17.40690       73.18934
H         37.76478       18.28479       72.14978
N         37.09453       18.52757       74.85935
C         36.59337       19.07733       76.12287
C         35.06140       18.96717       76.16398
O         34.51024       18.42153       75.21711
C         37.32715       18.29244       77.24322
C         38.81303       18.45811       77.03419
O         39.33589       19.70092       77.05733
O         39.50402       17.50389       76.71656
H         36.83214       17.55851       74.61731
H         36.86264       20.15108       76.21106
H         37.05019       17.21666       77.17728
H         37.09776       18.64576       78.25737
N         34.25725       19.43330       77.17211
C         34.66457       20.15418       78.36583
C         35.12937       21.54776       78.04600
O         34.33120       22.32805       77.54525
H         33.24411       19.25410       77.08368
H         35.39318       19.57507       78.94945
H         33.78311       20.27118       79.03414
N         36.40652       21.93786       78.31026
C         36.88774       23.28901       78.05370
C         37.68046       23.31170       76.76678
O         38.42750       22.38612       76.49195
C         37.71180       23.83904       79.23935
C         36.87046       23.92332       80.51757
O         38.17095       25.12805       78.91497
H         37.07804       21.23884       78.66423
H         36.02973       23.98562       77.91996
H         38.58043       23.16160       79.41045
H         38.91136       25.34107       79.54120
H         36.00118       24.59836       80.36214
H         36.50433       22.91997       80.81735
H         37.48777       24.33265       81.34586
N         37.53537       24.37546       75.92846
C         38.16486       24.55796       74.62769
C         39.67782       24.55819       74.72592
O         40.27648       23.53374       75.01646
C         37.65960       23.54549       73.56750
C         36.11473       23.40713       73.55706
C         38.19372       23.91780       72.16952
C         35.34616       24.71536       73.34708
H         36.91699       25.14264       76.23470
H         37.84350       25.56215       74.27390
H         38.05838       22.54612       73.81078
H         35.78447       22.97223       74.52531
H         35.82562       22.68661       72.76125
H         37.85326       24.92991       71.86630
H         39.30438       23.91393       72.15796
H         37.84945       23.18080       71.41429
H         35.54219       25.42766       74.17470
H         35.61200       25.19081       72.38231
H         34.25724       24.50098       73.34474
N         40.35745       25.70035       74.45572
C         41.80718       25.80932       74.48807
C         42.26368       26.78376       75.55798
O         43.46756       26.96816       75.67204
C         42.33363       26.21359       73.08669
C         41.74221       27.52824       72.56077
O         42.03973       25.19807       72.16333
H         39.81580       26.54365       74.22043
H         42.27512       24.83315       74.74793
H         43.43969       26.35701       73.14444
H         42.78851       24.54888       72.20229
H         41.93246       28.36127       73.26887
H         42.20433       27.77872       71.58338
H         40.64917       27.43669       72.38988
N         41.38839       27.44218       76.37884
C         41.82670       28.38240       77.40476
C         42.60277       27.60249       78.46177
O         41.97808       26.94985       79.28602
C         40.58970       29.13520       77.98524
C         40.96208       30.26528       78.94610
O         39.79557       29.66129       76.94764
H         40.37587       27.29023       76.26681
H         42.48180       29.13370       76.90951
H         39.95678       28.40231       78.53365
H         40.37809       30.21350       76.36360
H         41.53614       29.87842       79.81176
H         41.56418       31.03382       78.41596
H         40.03291       30.74766       79.32159
N         43.96680       27.50203       78.38054
C         44.79909       26.58051       79.16249
C         44.44281       25.12191       78.89284
O         43.27269       24.78964       78.79561
C         44.81331       26.88830       80.66707
C         45.36791       28.29819       80.93272
C         45.62434       28.58492       82.41864
C         44.35444       28.53359       83.27761
N         44.65249       28.90652       84.65993
H         44.45290       28.06335       77.66524
H         45.85179       26.70915       78.82184
H         45.49299       26.15233       81.15318
H         43.80033       26.76785       81.10106
H         44.67691       29.06021       80.51204
H         46.34915       28.39901       80.41717
H         46.06432       29.60348       82.49107
H         46.36991       27.85937       82.81349
H         43.92957       27.50678       83.26567
H         43.59872       29.23674       82.86367
H         43.77547       28.85212       85.22605
H         45.36066       28.25250       85.06626
H         45.01742       29.88629       84.69542
N         45.42026       24.17699       78.77169
C         45.11744       22.78701       78.44182
C         44.46391       22.70354       77.06682
O         43.35262       22.19880       77.00777
C         46.35935       21.87487       78.54469
C         46.81084       21.68269       79.99987
C         48.00686       20.77657       80.06963
O         49.05560       21.09994       79.53476
O         47.92936       19.60357       80.72695
H         46.40294       24.45650       78.91229
H         44.38616       22.38717       79.18311
H         47.20148       22.27911       77.95716
H         46.09620       20.86932       78.14575
H         45.97743       21.22561       80.57857
H         47.06900       22.65724       80.46459
N         45.01476       23.18257       75.91279
C         46.30504       23.82384       75.78988
H         47.12052       23.11502       76.01626
H         46.45539       24.14927       74.73855
H         46.36135       24.72287       76.43452
H         44.45899       23.10615       75.05149
Ca        40.86062       20.53813       75.57724
O         41.74828       20.45744       79.22832
H         41.86590       21.18501       79.88942
H         42.45419       19.80228       79.45659
O         40.76318       23.48099       77.81423
H         41.33148       23.05310       78.49973
H         40.68691       24.42280       78.10652
O         42.70390       18.43316       76.76975
H         42.02708       17.94744       76.23581
H         43.29268       17.72158       77.12489

Ca 1.0



