%chk=apoCaM-CA-Ng.loop3.water7.frame1163.chk
%nprocshared=20
%mem=10GB
%nosave
#b3lyp/svp scf=(tight,noincore,xqc) Test 
#IOP(5/87=12) Density=Current Pop=(MK,readradii) iop(6/33=2) iop(6/42=6)

apoCaM-CA-Ng.loop3.water7.frame1163 

   0  1 
C         86.61986       41.76689       70.21623
C         87.47709       40.57127       69.92152
O         88.60370       40.75637       69.49543
H         85.62190       41.46847       70.59953
H         87.11822       42.40301       70.97771
H         86.48042       42.35865       69.28670
N         87.00251       39.30760       70.10175
C         87.78330       38.10639       69.81096
C         87.20593       37.32931       68.63255
O         87.75195       36.28435       68.30825
C         87.90231       37.21802       71.07167
C         86.60339       36.59562       71.51909
O         85.67218       37.28857       71.89442
O         86.47617       35.25477       71.53321
H         86.03263       39.19655       70.42998
H         88.82191       38.38331       69.52547
H         88.33377       37.81154       71.90688
H         88.61625       36.39504       70.84730
N         86.14163       37.80321       67.91413
C         85.51906       37.13947       66.77238
C         86.53909       36.71357       65.72685
O         86.56143       35.55480       65.33777
C         84.56333       35.99823       67.20985
C         85.21781       34.75816       67.86426
C         84.23281       33.60779       68.12577
C         83.52963       33.11172       66.84686
N         82.73833       31.91311       67.11173
H         85.75471       38.72870       68.14607
H         84.85833       37.89398       66.28756
H         84.04565       35.69168       66.28023
H         83.79963       36.40765       67.90671
H         85.67419       35.04187       68.83320
H         86.01771       34.34187       67.22449
H         83.47135       33.91932       68.87154
H         84.82255       32.76849       68.55696
H         84.28510       32.88025       66.06280
H         82.84898       33.89958       66.46003
H         82.23228       31.64091       66.23780
H         83.36823       31.12820       67.39560
H         82.03882       32.10100       67.86576
N         87.43496       37.60609       65.23002
C         88.51374       37.19945       64.33507
C         89.85004       37.44785       64.99941
O         89.89443       37.99284       66.09541
C         88.36159       37.86452       62.95451
C         88.36274       39.36327       62.99029
O         89.34820       39.97569       63.36807
O         87.27721       40.03754       62.56661
H         87.38590       38.58942       65.53841
H         88.47903       36.10404       64.15067
H         87.39486       37.52330       62.52390
H         89.16802       37.52052       62.27299
N         90.99540       37.02745       64.40016
C         92.29295       37.19597       65.01503
C         92.41834       36.33122       66.25569
O         92.34748       35.12090       66.09901
H         90.95049       36.57146       63.47685
H         92.46757       38.27138       65.17479
H         93.08048       36.85544       64.30812
N         92.66176       36.80892       67.51256
C         92.73069       38.21428       67.91066
C         91.96951       38.42837       69.21597
O         91.74683       37.46303       69.93670
C         94.21507       38.58739       68.09564
C         94.93676       38.54344       66.77140
N         95.88775       37.61369       66.52527
O         94.64792       39.35484       65.90411
H         92.85150       36.10317       68.24348
H         92.26546       38.86825       67.15382
H         94.66984       37.87112       68.81533
H         94.34605       39.60285       68.51829
H         96.13624       36.90929       67.23431
H         96.36235       37.58512       65.61046
N         91.54760       39.65428       69.63930
C         91.64201       40.87591       68.84266
C         91.19628       42.10423       69.61313
O         90.87752       42.00268       70.78790
H         91.09996       39.69021       70.56724
H         91.01339       40.76218       67.93509
H         92.68885       41.05768       68.53736
N         91.20652       43.32923       69.00651
C         90.95056       44.56022       69.75069
C         89.82327       45.38430       69.14363
O         89.38553       45.11222       68.03762
C         92.27845       45.34717       69.77732
C         92.30488       46.52210       70.71825
C         92.54339       47.81927       70.23673
C         92.12717       46.32136       72.09727
C         92.60285       48.89887       71.12323
C         92.18424       47.40094       72.98037
C         92.42490       48.69438       72.49624
O         92.49060       49.74378       73.33935
H         91.48949       43.39598       68.01782
H         90.65228       44.30990       70.78927
H         92.52312       45.66107       68.73767
H         93.08695       44.66145       70.11339
H         92.68984       47.99548       69.17836
H         91.95233       45.32759       72.49023
H         92.79063       49.89454       70.74250
H         92.04769       47.22847       74.04032
H         92.38115       49.64085       74.29551
N         89.29671       46.42098       69.86186
C         88.25592       47.32719       69.36525
C         88.80040       48.15905       68.20392
O         90.00168       48.11144       67.96516
C         87.75280       48.21372       70.56551
C         88.85137       49.20114       71.05578
C         86.43410       48.95578       70.27812
C         88.53769       49.85585       72.40110
H         89.63948       46.53845       70.82335
H         87.40891       46.69617       69.01489
H         87.52014       47.49489       71.38363
H         89.02284       49.98914       70.29027
H         89.80727       48.66611       71.19774
H         85.66839       48.24827       69.89561
H         86.02568       49.39827       71.20934
H         86.57197       49.79001       69.56464
H         88.41225       49.07493       73.18145
H         89.38613       50.50988       72.69528
H         87.62592       50.48275       72.35285
N         87.99475       48.96550       67.45400
C         88.51709       49.86362       66.42840
C         87.91068       49.59613       65.06493
O         86.98353       48.80676       64.94546
C         88.26391       51.31924       66.86087
O         86.89051       51.54938       67.01504
H         86.98020       48.97203       67.62971
H         89.61587       49.73432       66.32222
H         88.68179       52.01927       66.10356
H         88.77471       51.49648       67.83318
H         86.78797       52.51891       67.20053
N         88.41547       50.25076       63.97973
C         87.90018       50.16745       62.62007
C         86.50034       50.74292       62.55775
O         85.58882       50.10321       62.05121
C         88.00818       48.74227       62.05568
H         89.21876       50.88241       64.12494
H         88.53573       50.82058       61.98133
H         87.37461       48.03083       62.62195
H         87.68205       48.72766       60.99375
H         89.06258       48.39704       62.10179
N         86.27288       51.97964       63.08851
C         84.98772       52.66151       63.08353
C         83.90759       51.79710       63.70638
O         82.88964       51.55180       63.07151
C         84.63603       53.12228       61.66170
H         87.05649       52.46734       63.54944
H         85.08488       53.58210       63.70170
H         83.69033       53.70575       61.67367
H         85.44224       53.77953       61.27152
H         84.51671       52.25853       60.97512
N         84.07680       51.29235       64.96144
C         83.08144       50.45796       65.62451
C         82.56104       51.12302       66.89995
O         81.63839       50.58864       67.49762
C         83.71558       49.07716       65.92233
C         82.70227       47.95697       66.22453
C         81.88917       47.61426       65.00443
O         80.54907       47.73873       65.02198
O         82.44312       47.21047       63.99315
H         84.95708       51.49483       65.45465
H         82.21620       50.31468       64.94308
H         84.43000       49.18900       66.76797
H         84.30309       48.74380       65.03917
H         82.03897       48.23398       67.06735
H         83.25623       47.04231       66.52523
N         83.09773       52.28592       67.38302
C         82.63923       52.93802       68.59310
H         81.78639       52.40983       69.06718
H         83.47476       52.98138       69.32365
H         82.32204       53.97413       68.35235
H         83.87955       52.74680       66.89981
Ca        87.55809       42.66574       63.71982
O         85.27424       42.49281       61.80460
H         84.39418       42.03976       61.79443
H         85.51467       42.59729       60.84988
O         88.45819       41.00799       66.02972
H         88.30351       41.39939       66.92451
H         89.42951       40.81962       66.00231
O         85.04081       42.03713       65.26905
H         84.24112       41.47283       65.41683
H         84.68020       42.90337       64.95196
O         87.03290       44.58345       66.03944
H         87.94692       44.20919       65.97151
H         87.05486       45.39352       65.47070
O         86.89714       45.32715       62.53718
H         85.94585       45.57876       62.64624
H         87.01493       45.21500       61.56072
O         88.91682       42.85506       61.03510
H         88.54278       42.08797       60.53311
H         88.79278       43.63132       60.43333
O         90.11853       44.09532       64.21591
H         90.18726       44.68639       63.42452
H         90.90589       43.49859       64.15276

Ca 1.0



