%chk=apoCaM-CA-Ng.loop4.water3.frame65.chk
%nprocshared=20
%mem=10GB
%nosave
#b3lyp/svp scf=(tight,noincore,xqc) Test 
#IOP(5/87=12) Density=Current Pop=(MK,readradii) iop(6/33=2) iop(6/42=6)

apoCaM-CA-Ng.loop4.water3.frame65 

   -3  1 
C         30.13436       37.80552       75.03482
C         28.75044       37.56693       74.52119
O         27.82588       38.19303       75.01742
H         30.76612       38.19325       74.20809
H         30.12209       38.56003       75.85149
H         30.56163       36.85849       75.42026
N         28.54229       36.70201       73.48396
C         27.24567       36.49263       72.85309
C         26.71764       37.85597       72.36439
O         25.33345       37.91221       72.35393
C         26.29345       35.59927       73.69713
C         25.91282       36.07010       75.06845
O         25.24295       37.07524       75.21698
O         26.25301       35.33585       76.14514
H         29.35834       36.22881       73.06790
H         27.39162       35.87036       71.94000
H         26.79519       34.61366       73.81049
H         25.35853       35.42029       73.12036
N         27.36951       38.20659       71.08575
C         27.03735       39.40967       70.28270
C         25.85897       39.12510       69.36413
O         26.09437       38.91688       68.18088
C         26.97707       40.76477       71.05211
C         26.83161       41.97819       70.08298
C         28.20837       40.96132       71.95789
C         27.96384       42.13962       69.05358
H         28.39894       38.22975       71.27824
H         27.90858       39.49654       69.59775
H         26.08586       40.76463       71.71107
H         26.78060       42.91378       70.68284
H         25.87470       41.89318       69.52592
H         28.15008       41.94032       72.48151
H         28.25136       40.17449       72.73785
H         29.15254       40.92410       71.37680
H         28.94920       42.27501       69.54508
H         28.01494       41.27822       68.35846
H         27.76851       43.03138       68.42738
N         24.57887       39.03698       69.82222
C         23.51371       38.46491       69.01152
C         22.87080       39.50018       68.08307
O         22.92432       39.27547       66.88232
C         22.54877       37.63971       69.90010
C         21.59458       36.81599       69.08260
O         20.38961       36.95922       69.20970
O         22.06870       35.88620       68.23021
H         24.38013       39.24001       70.80716
H         23.97629       37.68027       68.36755
H         21.99296       38.26143       70.61924
H         23.14945       36.93137       70.51216
N         22.25393       40.65111       68.49639
C         22.14522       41.05515       69.88767
C         21.36546       42.34183       70.12041
O         20.96306       42.97374       69.15415
H         21.85127       41.25592       67.76447
H         23.16765       41.18686       70.28750
H         21.60504       40.27276       70.40470
N         21.10328       42.83866       71.37453
C         21.47015       42.23901       72.66386
C         22.97040       42.00823       72.72201
O         23.38010       40.86248       72.79157
C         20.64178       40.96685       72.99232
C         19.15236       41.19328       73.02025
O         18.66705       42.28605       72.77216
O         18.33970       40.16707       73.33443
H         20.60861       43.74352       71.42344
H         21.20025       42.94079       73.48333
H         20.93934       40.61751       74.00287
H         20.84400       40.13479       72.30341
N         23.87590       43.02516       72.63304
C         23.52377       44.42953       72.63062
C         23.76416       45.05556       71.29248
O         24.25726       44.41425       70.37420
H         24.87750       42.79706       72.56495
H         24.09565       44.95964       73.42243
H         22.45457       44.58520       72.85655
N         23.35304       46.33393       71.10882
C         23.39349       47.00689       69.82112
C         24.77137       47.58015       69.52990
O         24.92433       48.19450       68.48188
C         22.29680       48.09539       69.78733
C         20.89810       47.46564       69.97082
C         19.81126       48.50578       69.97511
N         19.01236       48.66330       71.05772
O         19.64051       49.20611       68.98870
H         22.90080       46.81134       71.90513
H         23.13715       46.28424       69.01343
H         22.32192       48.61931       68.80664
H         22.48615       48.84095       70.59143
H         20.85635       46.90203       70.92639
H         20.70122       46.74316       69.14895
H         19.13704       48.08119       71.89946
H         18.26312       49.37067       71.05711
N         25.82643       47.40968       70.38523
C         27.15632       47.95373       70.13917
C         27.58102       48.93097       71.23172
O         28.65407       49.49901       71.08941
C         28.19787       46.81774       69.93554
C         27.81879       45.94839       68.72785
C         28.38986       45.93644       71.18032
H         25.70051       46.86672       71.24981
H         27.15546       48.54722       69.19726
H         29.17760       47.29129       69.70119
H         27.71275       46.57505       67.81654
H         28.61754       45.20267       68.53454
H         26.86074       45.41364       68.90565
H         28.71727       46.55172       72.04407
H         27.45525       45.40217       71.44863
H         29.17675       45.17623       70.98556
N         26.78187       49.22864       72.30819
C         27.11150       50.28101       73.26423
C         27.15329       49.82716       74.72584
O         28.20347       50.01610       75.32713
C         26.21277       51.52623       73.04282
C         24.70560       51.37282       73.06190
N         23.93088       52.46804       72.89220
O         24.17014       50.28633       73.19993
H         25.87401       48.76296       72.41350
H         28.13418       50.66963       73.05350
H         26.46125       51.93801       72.03950
H         26.50108       52.29097       73.79734
H         24.35612       53.39776       72.76290
H         22.90337       52.38709       72.89072
N         26.07556       49.31175       75.39803
C         26.07248       49.14479       76.85602
C         25.78688       47.72869       77.31822
O         25.39375       46.88737       76.52297
C         24.97219       50.04273       77.46440
C         25.12593       51.50938       77.15845
C         24.10321       52.20405       76.48890
C         26.27006       52.20633       77.57570
C         24.22065       53.57597       76.25127
C         26.38678       53.57757       77.33427
C         25.35874       54.26841       76.67617
O         25.45023       55.59489       76.45485
H         25.20498       49.10976       74.89485
H         27.05955       49.42794       77.27903
H         24.96689       49.93944       78.56964
H         23.98487       49.68360       77.09307
H         23.20717       51.68993       76.16262
H         27.06603       51.69133       78.09783
H         23.42083       54.10262       75.74553
H         27.27203       54.10291       77.66844
H         26.21188       56.11348       76.75081
N         25.94249       47.42696       78.64846
C         25.55525       46.17130       79.28966
C         26.27420       44.94330       78.75154
O         25.91956       43.84604       79.16102
C         24.01682       46.02014       79.27364
C         23.36072       47.12341       80.12592
C         21.86970       46.96976       80.18024
O         21.32270       45.84614       80.68298
O         21.14540       47.87310       79.79436
H         26.32317       48.15663       79.27066
H         25.83975       46.21436       80.36553
H         23.74192       45.04361       79.72944
H         23.62719       46.03974       78.23368
H         23.61733       48.12458       79.71830
H         23.74793       47.06271       81.16751
N         27.33590       45.03901       77.90286
C         28.06024       43.88326       77.39562
C         29.48353       43.90904       77.90970
O         29.88228       42.96881       78.58426
C         28.03876       43.90029       75.85945
C         26.63676       43.76216       75.24954
C         26.07420       42.38057       75.41456
O         26.04269       41.60108       74.32509
O         25.71048       41.95106       76.49727
H         27.67484       45.96647       77.61388
H         27.60721       42.93218       77.74733
H         28.67741       43.08099       75.45921
H         28.46756       44.86380       75.50867
H         26.76297       43.93401       74.15766
H         25.92587       44.52676       75.62227
N         30.31429       44.95185       77.63458
C         31.67776       44.98857       78.11451
H         32.17259       45.92344       77.77701
H         31.68960       44.95825       79.22486
H         32.24326       44.12038       77.71366
H         29.97629       45.74439       77.06933
Ca        25.33836       39.51280       73.95950
O         22.44658       38.00894       74.77146
H         22.38452       37.02829       74.65084
H         21.92497       38.38250       74.01841
O         25.10368       38.78168       77.67870
H         25.25385       39.21438       78.55621
H         25.29124       37.82302       77.84121
O         22.70573       40.85312       76.20166
H         21.75626       40.62935       76.37133
H         22.95717       41.44588       76.95356

Ca 1.0



