%chk=apoCaM-CA-Ng.loop4.water5.frame550.chk
%nprocshared=20
%mem=10GB
%nosave
#b3lyp/svp scf=(tight,noincore,xqc) Test 
#IOP(5/87=12) Density=Current Pop=(MK,readradii) iop(6/33=2) iop(6/42=6)

apoCaM-CA-Ng.loop4.water5.frame550 

   -3  1 
C         43.90663       11.03678       60.30214
C         42.77774       10.05512       60.43302
O         42.97260        9.01747       61.04527
H         44.75986       10.56212       59.77631
H         43.59790       11.94088       59.73543
H         44.23353       11.35777       61.31414
N         41.55499       10.33448       59.89337
C         40.35607        9.49467       59.97204
C         39.77760        9.35983       61.38568
O         38.71738        8.76017       61.50975
C         40.59009        8.07205       59.42529
C         41.38810        7.96150       58.16290
O         42.54847        7.27749       58.23109
O         40.97717        8.40435       57.10299
H         41.45521       11.21495       59.36480
H         39.58344        9.98851       59.34109
H         39.61919        7.54728       59.29761
H         41.14545        7.51264       60.18966
N         40.41733        9.82996       62.49946
C         39.90247        9.62015       63.85409
C         38.61403       10.41121       64.05243
O         38.36022       11.30583       63.25664
C         40.97798       10.00336       64.93183
C         41.35558       11.51058       64.88625
C         42.20755        9.08622       64.80017
C         42.32594       11.93030       65.99119
H         41.31249       10.30949       62.39428
H         39.68619        8.53522       63.95406
H         40.56577        9.80845       65.93579
H         40.43215       12.11281       65.02060
H         41.80762       11.78777       63.91268
H         42.73109        9.22932       63.83342
H         42.93095        9.25338       65.62243
H         41.88502        8.03184       64.88058
H         41.90431       11.68751       66.98935
H         43.31063       11.43462       65.87239
H         42.49616       13.02574       65.93234
N         37.73441       10.19639       65.07432
C         37.77303        9.10443       66.04782
C         37.54434        7.77477       65.35749
O         38.29682        6.83750       65.58521
C         36.66348        9.29725       67.10928
C         36.82324       10.55461       67.93021
O         37.75428       11.32377       67.74418
O         35.92340       10.83093       68.89243
H         36.93292       10.84587       65.12840
H         38.72195        9.08271       66.61358
H         36.68367        8.43580       67.81317
H         35.66734        9.32082       66.61647
N         36.50227        7.63393       64.49196
C         36.13288        6.38234       63.86123
C         35.49387        5.46810       64.87489
O         34.55879        5.89579       65.53822
H         35.92951        8.46073       64.26524
H         37.00364        5.92562       63.33959
H         35.35586        6.59477       63.09629
N         35.90943        4.18095       65.02732
C         35.27816        3.26513       65.97686
C         35.60357        3.57471       67.44137
O         35.12301        2.84248       68.29630
C         35.58403        1.78605       65.62345
C         37.03158        1.36758       65.59826
O         38.02928        2.25080       65.78009
O         37.30642        0.20115       65.36722
H         36.64267        3.83007       64.39326
H         34.17363        3.34835       65.86084
H         35.16296        1.57378       64.61659
H         35.04343        1.13801       66.34854
N         36.38028        4.63267       67.82808
C         36.70003        4.89732       69.22553
C         37.70282        3.91146       69.80313
O         38.02359        4.02721       70.97663
H         36.74865        5.29176       67.13130
H         35.76281        4.91425       69.82285
H         37.16919        5.90287       69.30492
N         38.29428        2.96558       69.01878
C         39.36335        2.06593       69.42645
C         40.58405        2.85556       69.85687
O         41.18704        2.57360       70.88259
C         38.88147        1.00701       70.43434
C         37.80732        0.10831       69.79258
C         37.32993       -0.99957       70.69665
N         36.42773       -1.89547       70.23450
O         37.75365       -1.10329       71.83884
H         38.03842        2.91305       68.03161
H         39.69417        1.51563       68.51552
H         38.48960        1.49318       71.35305
H         39.74445        0.36301       70.71321
H         38.23864       -0.36191       68.88115
H         36.93035        0.72082       69.49107
H         36.06743       -1.82792       69.27089
H         36.09474       -2.66310       70.83607
N         41.00119        3.87291       69.05600
C         42.21429        4.65563       69.25661
C         43.10388        4.60457       68.02017
O         44.31671        4.66693       68.17119
C         41.89590        6.13985       69.61540
C         41.09123        6.89046       68.53621
C         41.16591        6.23240       70.96120
H         40.39643        4.10491       68.25911
H         42.80431        4.24936       70.10909
H         42.86708        6.67158       69.73825
H         40.09359        6.42873       68.38287
H         40.94056        7.94763       68.84272
H         41.63601        6.91359       67.57122
H         41.77103        5.75201       71.75948
H         41.01668        7.29747       71.24172
H         40.17514        5.73636       70.91008
N         42.56709        4.65163       66.76492
C         43.35626        4.91689       65.57355
C         44.29691        3.76306       65.22357
O         44.17977        2.67636       65.76796
C         42.38632        5.18833       64.38812
C         42.95726        5.95434       63.21976
N         42.27512        6.00519       62.06087
O         44.00307        6.57648       63.31602
H         41.54737        4.63259       66.65108
H         43.93291        5.84193       65.79325
H         41.51611        5.79124       64.72276
H         41.97420        4.21209       64.05060
H         41.36980        5.52569       61.95347
H         42.68109        6.50865       61.26344
N         45.25484        3.96868       64.28044
C         46.16489        2.96428       63.73511
C         47.22607        3.63756       62.85810
O         47.14640        4.83033       62.60554
C         45.36550        1.87194       62.96924
C         44.36404        2.41906       61.96155
C         44.77209        3.09113       60.79428
C         42.98467        2.24723       62.19392
C         43.81935        3.58571       59.89246
C         42.03876        2.74623       61.29405
C         42.45071        3.41879       60.14217
O         41.52486        3.90184       59.28788
H         45.34792        4.92183       63.94498
H         46.72040        2.49301       64.57440
H         44.80544        1.29103       63.73216
H         46.04653        1.14665       62.47446
H         45.82130        3.23003       60.57327
H         42.63374        1.73458       63.08067
H         44.13914        4.10034       58.99855
H         40.98264        2.61456       61.49612
H         41.76457        4.38351       58.48323
N         48.28822        2.92560       62.38793
C         49.34199        3.54521       61.58942
C         49.35017        2.88372       60.23349
O         49.62899        1.69446       60.17859
C         50.70811        3.39494       62.29100
C         50.72961        4.09620       63.65892
C         52.07462        3.96627       64.31489
O         52.52038        2.86480       64.59565
O         52.79012        5.06837       64.61038
H         48.35835        1.92118       62.60811
H         49.16053        4.62880       61.46672
H         51.49449        3.84655       61.64621
H         50.94254        2.31559       62.42946
H         49.96487        3.65164       64.33197
H         50.49443        5.17391       63.52102
N         49.00507        3.52527       59.07842
C         48.60083        4.92725       58.93542
C         49.77141        5.86999       59.13593
O         50.81224        5.66620       58.52544
C         48.05988        5.16332       57.50857
C         46.70777        4.46794       57.28201
C         46.34145        4.49056       55.82443
O         47.03582        3.87999       55.02749
O         45.26509        5.16492       55.36955
H         48.99712        2.93966       58.22764
H         47.77444        5.17700       59.63893
H         48.82250        4.80389       56.78268
H         47.89935        6.25100       57.32937
H         45.94338        4.99126       57.89280
H         46.74082        3.40522       57.60374
N         49.62658        6.98628       59.90584
C         50.65445        7.99927       60.04835
H         51.58825        7.73786       59.50762
H         50.27725        8.96012       59.63502
H         50.89261        8.14189       61.12189
H         48.72539        7.16254       60.37508
Ca        43.89913        6.44553       56.63314
O         45.27195        7.30679       59.43223
H         44.71613        6.55784       59.76332
H         46.09022        7.27141       59.98731
O         42.52853       10.06993       54.66426
H         41.55450       10.23379       54.73551
H         42.73551        9.46281       55.41845
O         46.98838        9.09660       57.64210
H         47.82725        9.36171       57.18799
H         46.78335        9.85324       58.24697
O         43.56043        7.26305       53.42210
H         43.93586        6.34733       53.41349
H         42.63810        7.14853       53.76366
O         46.88688        7.68009       54.62377
H         47.39597        6.83345       54.68239
H         47.01584        7.97809       53.68874

Ca 1.0



