%chk=apoCaM-CA-Ng.loop3.water3.frame792.chk
%nprocshared=20
%mem=10GB
%nosave
#b3lyp/svp scf=(tight,noincore,xqc) Test 
#IOP(5/87=12) Density=Current Pop=(MK,readradii) iop(6/33=2) iop(6/42=6)

apoCaM-CA-Ng.loop3.water3.frame792 

   0  1 
C        -16.94135       -1.86306       87.01534
C        -18.43692       -1.72053       86.94997
O        -19.13584       -2.70267       86.74942
H        -16.46259       -1.21114       86.25560
H        -16.58998       -1.54858       88.02372
H        -16.62546       -2.91396       86.84923
N        -18.99228       -0.50041       87.16676
C        -20.42684       -0.26044       87.28797
C        -21.17971       -0.43872       85.96199
O        -20.80364        0.19463       84.98570
C        -20.63512        1.17241       87.81852
C        -22.00198        1.39018       88.38705
O        -22.31825        2.49783       88.78337
O        -22.86099        0.36976       88.53977
H        -18.34355        0.28135       87.35360
H        -20.80824       -0.95105       88.06336
H        -20.42376        1.89652       87.00133
H        -19.93194        1.38133       88.65190
N        -22.26452       -1.26686       85.85831
C        -23.02967       -1.44410       84.61900
C        -23.91253       -0.24165       84.26731
O        -24.13723       -0.03833       83.08226
C        -23.89476       -2.72434       84.66297
C        -23.05140       -4.01293       84.58951
C        -23.95662       -5.25228       84.67231
C        -23.19638       -6.55163       84.36750
N        -24.08225       -7.71085       84.49289
H        -22.55365       -1.80407       86.68602
H        -22.31711       -1.58796       83.77572
H        -24.56322       -2.74070       83.77284
H        -24.53359       -2.71643       85.56823
H        -22.29800       -4.05179       85.40625
H        -22.51388       -4.01421       83.61442
H        -24.77881       -5.16253       83.92934
H        -24.39950       -5.30153       85.69119
H        -22.33600       -6.66986       85.06190
H        -22.80344       -6.50564       83.32633
H        -24.40679       -7.80572       85.48269
H        -24.91022       -7.60747       83.86153
H        -23.56149       -8.57664       84.22352
N        -24.49021        0.56011       85.21341
C        -25.32133        1.73094       84.88642
C        -24.69056        3.03461       85.38480
O        -25.29729        4.08200       85.20659
C        -26.78971        1.52967       85.35635
C        -26.93443        1.16778       86.80229
O        -26.50614        1.99068       87.76744
O        -27.36554        0.06816       87.10920
H        -24.32319        0.34790       86.20801
H        -25.39889        1.86362       83.78514
H        -27.21400        0.69326       84.75801
H        -27.39495        2.43539       85.13683
N        -23.43725        3.06352       85.92831
C        -22.72346        4.28382       86.28206
C        -23.24903        5.04111       87.48881
O        -22.63119        6.04179       87.82369
H        -22.90243        2.18982       86.00414
H        -22.69644        4.96014       85.39976
H        -21.67219        4.01160       86.51892
N        -24.36185        4.66391       88.18473
C        -24.89221        5.42819       89.31496
C        -25.14473        4.54571       90.53286
O        -24.97032        3.33866       90.46011
C        -26.20573        6.10078       88.86445
C        -25.96411        7.06350       87.72680
N        -25.17579        8.15123       87.89910
O        -26.48720        6.86103       86.64128
H        -24.89605        3.84596       87.87218
H        -24.17652        6.21698       89.62996
H        -26.66966        6.67030       89.69602
H        -26.92320        5.31147       88.54425
H        -24.73437        8.34523       88.80972
H        -25.00859        8.80669       87.12160
N        -25.59451        5.10413       91.69618
C        -25.99724        4.33108       92.86216
C        -24.86397        3.54785       93.48666
O        -23.90793        4.14559       93.95946
H        -25.71962        6.12651       91.74094
H        -26.82269        3.65148       92.55938
H        -26.40370        5.01731       93.63656
N        -24.92005        2.18649       93.51536
C        -23.89480        1.32200       94.09142
C        -23.10073        0.66512       92.97449
O        -23.31730        0.98906       91.81507
C        -24.56604        0.22937       94.96920
C        -25.15085        0.70505       96.27399
C        -24.32160        1.28472       97.25064
C        -26.50867        0.49594       96.56469
C        -24.84104        1.64021       98.49899
C        -27.02590        0.85182       97.81467
C        -26.19511        1.41837       98.78738
O        -26.70450        1.73279       99.99572
H        -25.71469        1.72318       93.04706
H        -23.15648        1.89644       94.69219
H        -23.82814       -0.53458       95.27801
H        -25.32791       -0.30138       94.35637
H        -23.26748        1.43897       97.05685
H        -27.16264        0.03517       95.83517
H        -24.18691        2.07228       99.24623
H        -28.07060        0.67051       98.03350
H        -26.15866        2.10321      100.70417
N        -22.14434       -0.26580       93.27395
C        -21.30786       -0.99095       92.32260
C        -22.15744       -1.80061       91.34571
O        -22.97250       -1.22896       90.64293
C        -20.30326       -0.05487       91.59023
C        -19.24570       -0.86198       90.78003
C        -19.60347        0.90862       92.56813
C        -18.31038       -1.75527       91.61299
H        -21.97462       -0.49186       94.26434
H        -20.70001       -1.69071       92.92983
H        -20.86754        0.57970       90.87518
H        -18.60932       -0.14709       90.21551
H        -19.76046       -1.50580       90.04115
H        -18.88561        1.55582       92.02032
H        -20.34417        1.57731       93.05436
H        -19.06404        0.35949       93.36662
H        -17.58987       -2.26287       90.93872
H        -17.72381       -1.15908       92.34148
H        -18.86314       -2.54899       92.15339
N        -21.99929       -3.14635       91.22157
C        -22.74181       -3.91702       90.22417
C        -22.98462       -5.35474       90.63563
O        -23.47998       -6.11057       89.80749
C        -22.00755       -3.85407       88.87955
O        -20.74156       -4.45168       88.96213
H        -21.23019       -3.59398       91.73948
H        -23.74776       -3.47055       90.06942
H        -21.93157       -2.79662       88.56390
H        -22.59552       -4.36747       88.08755
H        -20.08463       -3.72096       89.09699
N        -22.72235       -5.80708       91.89371
C        -22.95124       -7.18714       92.28647
C        -24.29529       -7.30944       92.98782
O        -24.82877       -6.28601       93.39621
C        -21.80525       -7.61909       93.20744
H        -22.42627       -5.14790       92.62799
H        -22.93405       -7.82420       91.38635
H        -20.83259       -7.50955       92.68306
H        -21.78899       -6.98409       94.12023
H        -21.90612       -8.66328       93.53146
N        -24.93421       -8.49812       93.20315
C        -24.54133       -9.79940       92.66213
C        -25.30202      -10.90358       93.38703
O        -26.52393      -10.84133       93.41119
C        -24.87716       -9.90014       91.16395
H        -25.79953       -8.45561       93.76505
H        -23.46002       -9.94739       92.77320
H        -24.56940      -10.89875       90.78274
H        -25.96759       -9.77702       90.99518
H        -24.35827       -9.14412       90.55028
N        -24.69710      -11.97695       93.97577
C        -23.26409      -12.25028       93.95060
C        -22.47582      -11.24127       94.76847
O        -21.36503      -10.91497       94.37441
C        -22.99245      -13.69204       94.42634
C        -21.53805      -14.12816       94.17673
C        -21.30706      -15.58112       94.49503
O        -20.20201      -16.06597       94.31372
O        -22.30264      -16.36296       94.95894
H        -25.31587      -12.68104       94.40985
H        -22.93164      -12.21585       92.88826
H        -23.64682      -14.36542       93.82847
H        -23.25826      -13.80434       95.50091
H        -20.84614      -13.51238       94.78891
H        -21.29621      -13.97637       93.10166
N        -22.99415      -10.69374       95.90519
C        -22.30265       -9.69421       96.69678
H        -21.30556       -9.43564       96.28177
H        -22.91267       -8.76654       96.72963
H        -22.16570      -10.07051       97.73168
H        -23.93138      -10.97999       96.22413
Ca       -24.97925        0.90076       88.94965
O        -27.45708        1.32212       90.72785
H        -28.00905        2.09482       90.44792
H        -28.10700        0.66867       91.08909
O        -25.06125       -2.05020       88.19984
H        -24.83207       -2.99017       87.99372
H        -25.64954       -1.77576       87.45447
O        -25.97960       -1.49023       91.24739
H        -26.29288       -2.39126       90.98186
H        -26.54479       -1.24900       92.02367

Ca 1.0



