%chk=apoCaM-CA-Ng.loop3.water6.frame1058.chk
%nprocshared=20
%mem=10GB
%nosave
#b3lyp/svp scf=(tight,noincore,xqc) Test 
#IOP(5/87=12) Density=Current Pop=(MK,readradii) iop(6/33=2) iop(6/42=6)

apoCaM-CA-Ng.loop3.water6.frame1058 

   0  1 
C         30.60859       89.90521       50.16211
C         31.73385       90.79005       50.61474
O         31.51163       91.63374       51.47140
H         29.78764       90.53209       49.75440
H         30.93803       89.20160       49.36862
H         30.22544       89.31627       51.02127
N         32.98040       90.65332       50.08122
C         34.10292       91.50621       50.45897
C         33.79874       92.96281       50.13992
O         33.84926       93.77918       51.04528
C         35.43097       90.98817       49.85222
C         35.47503       90.80739       48.35756
O         35.43297       91.76671       47.60674
O         35.63193       89.57191       47.84249
H         33.13265       89.91118       49.38119
H         34.25422       91.42962       51.56065
H         35.61627       89.98919       50.30681
H         36.26152       91.65660       50.15914
N         33.38192       93.34260       48.90209
C         32.98220       94.70935       48.56410
C         34.18886       95.62302       48.49309
O         35.16545       95.26047       47.85039
C         32.21194       94.73877       47.23027
C         30.95019       93.85953       47.31878
C         30.07179       93.97611       46.07556
C         28.87553       93.02071       46.19336
N         27.98646       93.14487       45.04160
H         33.27244       92.60675       48.19224
H         32.26567       95.08696       49.32720
H         32.85693       94.39641       46.39127
H         31.90367       95.79030       47.03451
H         30.34784       94.16336       48.20362
H         31.23955       92.79550       47.44349
H         30.66159       93.71584       45.16991
H         29.71144       95.02427       45.98403
H         28.30340       93.24554       47.12138
H         29.24802       91.97310       46.25946
H         27.59580       94.11397       44.99775
H         28.50629       92.92982       44.16019
H         27.19832       92.46588       45.14708
N         34.18787       96.84232       49.11410
C         35.37085       97.70594       49.12631
C         36.50031       97.08256       49.95241
O         37.62952       97.54406       49.87108
C         35.02858       99.13381       49.61584
C         34.52707       99.21097       51.03565
O         34.22755      100.29460       51.51059
O         34.40561       98.09998       51.78655
H         33.32342       97.15948       49.57821
H         35.71541       97.80779       48.07268
H         34.24617       99.55601       48.94682
H         35.93296       99.77411       49.52671
N         36.24474       96.02427       50.77531
C         37.21870       95.26806       51.53980
C         38.15597       94.46728       50.65220
O         38.22154       94.74427       49.46275
H         35.27403       95.71710       50.89170
H         36.61979       94.54764       52.13314
H         37.78764       95.91568       52.24064
N         38.90116       93.41646       51.11482
C         38.83469       92.86040       52.46941
C         38.30626       91.42435       52.40160
O         38.37874       90.83227       51.33388
C         40.21111       92.91523       53.16200
C         41.21925       91.95761       52.56526
N         41.71586       90.93923       53.30692
O         41.58605       92.09382       51.40824
H         39.50073       92.93547       50.42796
H         38.15062       93.46454       53.08678
H         40.07402       92.66144       54.23093
H         40.60668       93.95299       53.12715
H         41.41780       90.79982       54.28372
H         42.39429       90.27832       52.90108
N         37.72591       90.77521       53.45153
C         37.48277       91.37074       54.75669
C         36.60422       90.50421       55.63666
O         36.24442       89.39533       55.25876
H         37.38664       89.81893       53.26383
H         36.92220       92.31820       54.61107
H         38.43731       91.58234       55.27876
N         36.15441       90.99777       56.82195
C         35.12801       90.31046       57.60317
C         34.25109       91.31102       58.34313
O         34.61568       92.47541       58.46081
C         35.79744       89.30448       58.56723
C         34.83739       88.37643       59.27678
C         34.69741       88.42111       60.67494
C         34.09748       87.43015       58.54629
C         33.83374       87.53549       61.32865
C         33.24009       86.54098       59.20293
C         33.10718       86.58981       60.59793
O         32.29269       85.73175       61.24560
H         36.44565       91.95480       57.07601
H         34.45489       89.78701       56.88744
H         36.39462       89.88699       59.30344
H         36.50803       88.66290       58.00255
H         35.25746       89.13805       61.26159
H         34.19655       87.36996       57.46989
H         33.73562       87.57820       62.40630
H         32.68550       85.81005       58.62767
H         31.78642       85.05032       60.78034
N         33.03896       90.93271       58.83300
C         32.16563       91.86142       59.54963
C         32.81587       92.34516       60.84146
O         33.86460       91.84623       61.22613
C         30.73941       91.26812       59.79270
C         29.97135       91.19263       58.44814
C         30.77205       89.91293       60.53333
C         28.50663       90.77771       58.59654
H         32.72642       89.97157       58.64467
H         32.04184       92.77025       58.91782
H         30.17763       91.98377       60.43031
H         30.47801       90.50314       57.73996
H         29.96819       92.20989       57.99580
H         31.34804       89.99783       61.47722
H         29.74626       89.58749       60.79933
H         31.21776       89.10760       59.91491
H         28.00547       90.83861       57.60712
H         28.42046       89.73333       58.95733
H         27.98022       91.45939       59.29861
N         32.24514       93.37178       61.53398
C         32.82609       93.97621       62.72896
C         33.06882       95.46466       62.49996
O         32.75939       95.96416       61.42714
C         31.87454       93.74576       63.91327
O         30.63094       94.34264       63.66388
H         31.36002       93.76919       61.18372
H         33.80120       93.50372       62.97822
H         32.31465       94.16886       64.84244
H         31.74259       92.64874       64.04912
H         30.06413       94.13732       64.45180
N         33.60635       96.24221       63.48902
C         33.79904       97.68891       63.38528
C         32.47595       98.43396       63.21203
O         32.47930       99.55527       62.72283
C         34.82545       98.03363       62.29373
H         33.87197       95.79633       64.37910
H         34.23646       98.05302       64.34070
H         34.47437       97.74414       61.28319
H         35.02931       99.12609       62.29083
H         35.78276       97.51068       62.50483
N         31.30164       97.86989       63.62386
C         29.98427       98.48379       63.50787
C         29.66159       98.83988       62.06835
O         29.16114       99.92623       61.80589
C         29.84896       99.68624       64.45403
H         31.32140       96.92975       64.04302
H         29.24029       97.72288       63.83437
H         30.55400      100.49638       64.17266
H         28.81392      100.08937       64.41665
H         30.06216       99.37331       65.49750
N         29.95900       97.96885       61.06667
C         29.67092       98.26386       59.67321
C         28.19184       98.09037       59.42293
O         27.54928       99.03460       58.98455
C         30.56495       97.41755       58.74844
C         30.30834       97.73575       57.26570
C         31.46233       97.29633       56.42158
O         31.31965       96.45963       55.54532
O         32.66231       97.87642       56.60745
H         30.44296       97.08915       61.30028
H         29.96631       99.31700       59.45561
H         30.45537       96.32451       58.92480
H         31.61077       97.70074       59.00834
H         30.21444       98.83204       57.11268
H         29.36007       97.25104       56.94508
N         27.57393       96.91512       59.71756
C         26.15130       96.73372       59.53356
H         25.59405       97.48958       60.12859
H         25.89127       96.84274       58.45984
H         25.85028       95.72209       59.87818
H         28.12309       96.13528       60.11032
Ca        33.69468       98.14021       53.92119
O         35.10675       96.64404       56.52596
H         36.03416       96.32395       56.64843
H         34.56328       96.07818       57.13071
O         34.67324       95.15306       54.06794
H         34.23301       95.18759       53.18313
H         34.37089       94.29795       54.46421
O         31.55689      100.10504       53.58324
H         31.74817       99.84065       52.64830
H         30.66635      100.53406       53.54249
O         36.67774       97.89785       53.79015
H         37.03974       98.32968       52.97590
H         37.46266       97.77773       54.38069
O         34.87200      100.56055       55.07169
H         34.30408      100.96201       55.77629
H         35.78019      100.53534       55.46475
O         31.84943       96.37707       52.26155
H         31.76803       95.54103       51.73852
H         31.71243       97.10049       51.59967

Ca 1.0



