%chk=apoCaM-CA-Ng.loop1.water1.frame838.chk
%nprocshared=20
%mem=10GB
%nosave
#b3lyp/svp scf=(tight,noincore,xqc) Test 
#IOP(5/87=12) Density=Current Pop=(MK,readradii) iop(6/33=2) iop(6/42=6)

apoCaM-CA-Ng.loop1.water1.frame838 

   0  1 
C         39.60357       14.21488       92.58315
C         38.35999       13.88232       91.81386
O         37.35144       13.57336       92.43267
H         40.44318       14.47672       91.90544
H         39.40567       15.07501       93.25524
H         39.90528       13.33617       93.19154
N         38.35664       13.92135       90.45086
C         37.18497       13.58210       89.64402
C         36.72230       12.13625       89.88329
O         37.31653       11.43732       90.69171
C         37.43023       13.92911       88.15332
C         38.57472       13.22245       87.48975
O         38.75479       13.37866       86.29249
O         39.38971       12.40126       88.17122
H         39.22073       14.22036       89.97360
H         36.34413       14.23611       89.96344
H         37.61252       15.02162       88.06222
H         36.51031       13.70321       87.57578
N         35.61440       11.64695       89.25317
C         34.93414       10.41038       89.64436
C         35.33135        9.26959       88.71177
O         34.49380        8.74422       87.99194
C         33.41153       10.72188       89.66821
C         32.47603        9.66585       90.28379
C         32.68071        9.49378       91.79819
C         31.56858        8.62510       92.40520
N         31.75648        8.45183       93.84528
H         35.14301       12.24462       88.55807
H         35.23520       10.12483       90.67475
H         33.08117       10.92182       88.62472
H         33.25180       11.66085       90.24465
H         32.56523        8.68980       89.76190
H         31.44047       10.04293       90.12736
H         32.64307       10.49006       92.29175
H         33.67069        9.03159       91.99511
H         31.56174        7.63166       91.91469
H         30.58149        9.10833       92.22449
H         32.66405        7.96755       94.03284
H         31.74389        9.38068       94.32615
H         30.97650        7.86664       94.22364
N         36.62585        8.82865       88.70193
C         37.14453        7.77782       87.81766
C         38.59250        7.44881       88.20739
O         39.37014        8.37690       88.37744
C         37.05486        8.21030       86.32351
C         37.93795        9.38046       86.00288
O         37.45558       10.49603       85.88727
O         39.27586        9.21905       85.92993
H         37.27393        9.26413       89.37378
H         36.50906        6.87852       87.92462
H         36.00331        8.47472       86.08999
H         37.32789        7.37296       85.64701
N         39.08076        6.18538       88.35109
C         38.33380        4.96249       88.16619
C         37.36817        4.73439       89.29211
O         37.79208        4.71334       90.43931
H         40.08527        6.08172       88.56625
H         39.04729        4.11014       88.19763
H         37.85008        4.94882       87.16515
N         36.06266        4.46770       89.02533
C         35.10915        4.06912       90.04664
C         34.84808        2.59204       89.83530
O         35.14090        1.80198       90.72244
C         33.83981        4.94102       89.95567
C         32.83619        4.66241       91.04541
O         33.08376        3.76006       92.01536
O         31.78163        5.27481       91.05787
H         35.75625        4.44934       88.04017
H         35.54405        4.20806       91.06254
H         33.35176        4.79002       88.96935
H         34.13181        6.01197       90.03150
N         34.36719        2.14066       88.64152
C         34.22784        0.73326       88.31643
C         35.55358        0.01156       88.10479
O         35.49843       -1.17558       87.81929
H         34.08847        2.82123       87.91972
H         33.67010        0.64656       87.35931
H         33.62829        0.22960       89.10601
N         36.77102        0.63094       88.21717
C         38.04697       -0.06429       88.02364
C         38.92851        0.64400       86.99707
O         38.59694        1.73632       86.55856
C         38.79232       -0.19150       89.38373
C         39.06789        1.15674       90.07600
O         38.09096       -1.04504       90.25324
H         36.81300        1.62594       88.47161
H         37.87319       -1.09319       87.64067
H         39.77565       -0.67252       89.19702
H         37.22440       -0.61494       90.47297
H         38.12171        1.65978       90.36480
H         39.65871        0.98746       91.00083
H         39.64050        1.83750       89.41405
N         40.09873        0.05984       86.59268
C         41.09145        0.71181       85.73861
C         41.25187       -0.04145       84.42270
O         41.12284        0.57616       83.37422
C         42.46120        0.80719       86.48797
C         42.27964        1.47486       87.87774
C         43.48702        1.57913       85.63056
C         43.56732        1.59102       88.69688
H         40.32297       -0.88070       86.94961
H         40.77302        1.75280       85.50461
H         42.85297       -0.22110       86.65621
H         41.58763        0.85014       88.47730
H         41.83317        2.48644       87.76453
H         43.14932        2.62517       85.46837
H         44.48496        1.59335       86.11261
H         43.62999        1.09240       84.64399
H         44.03969        0.59399       88.82418
H         44.28717        2.28710       88.22119
H         43.32662        2.00005       89.70111
N         41.54849       -1.37292       84.40313
C         41.81373       -2.14248       83.18440
C         43.18807       -2.81099       83.30974
O         43.81961       -2.65685       84.34891
C         40.64488       -3.14165       82.96101
C         39.33559       -2.37762       82.70170
O         40.89551       -3.96272       81.85172
H         41.59012       -1.87965       85.30111
H         41.86269       -1.47437       82.29611
H         40.54205       -3.77227       83.87513
H         40.29155       -4.74760       81.92969
H         38.50003       -3.09027       82.53917
H         39.07060       -1.72345       83.55760
H         39.43725       -1.74865       81.78927
N         43.73351       -3.54701       82.29103
C         45.05361       -4.17666       82.38020
C         46.01433       -3.68453       81.28940
O         47.18853       -4.01010       81.37647
C         44.87792       -5.71922       82.34677
C         46.16369       -6.49506       82.67673
O         44.38790       -6.11208       81.08973
H         43.19335       -3.68235       81.42567
H         45.51818       -3.91578       83.35626
H         44.13140       -5.97370       83.13551
H         44.05794       -7.04372       81.18487
H         46.55319       -6.18747       83.67054
H         45.94444       -7.58328       82.71398
H         46.94891       -6.34524       81.91033
N         45.60306       -2.92361       80.22696
C         46.49840       -2.50586       79.15089
C         46.46611       -0.99801       78.99332
O         45.40986       -0.45433       78.70124
C         46.06948       -3.18159       77.82436
C         46.94666       -2.72480       76.63645
C         46.52050       -3.30248       75.27988
C         46.79391       -4.80525       75.13782
N         46.44410       -5.26379       73.79239
H         44.61440       -2.65747       80.13494
H         47.54267       -2.82863       79.35446
H         45.00937       -2.92427       77.60605
H         46.14032       -4.28322       77.94947
H         48.01560       -2.96235       76.82886
H         46.85426       -1.62267       76.53670
H         47.11323       -2.77867       74.49817
H         45.44495       -3.08363       75.09976
H         46.20775       -5.38070       75.88542
H         47.87638       -4.99492       75.31378
H         46.99049       -4.73181       73.07557
H         46.67498       -6.27927       73.70228
H         45.42093       -5.12996       73.62165
N         47.61649       -0.26948       79.09037
C         47.67624        1.15065       78.75915
C         46.70992        1.97431       79.60761
O         45.84509        2.60084       79.01101
C         49.12254        1.70265       78.79980
C         50.03608        1.04305       77.75117
C         51.40607        1.66061       77.77595
O         51.84660        2.21895       76.78371
O         52.15872        1.59535       78.89122
H         48.48666       -0.75798       79.34814
H         47.34825        1.26372       77.69937
H         49.57941        1.56607       79.79474
H         49.08273        2.79155       78.57414
H         49.59144        1.17618       76.74025
H         50.14098       -0.04447       77.94563
N         46.71872        2.03481       80.97094
C         47.64502        1.33895       81.83526
H         48.67180        1.72033       81.69960
H         47.37363        1.53149       82.89483
H         47.59772        0.24530       81.66048
H         45.99148        2.60491       81.43085
Ca        40.39908       10.88790       86.88836
O         40.34731       10.33511       90.83127
H         39.49400        9.92642       91.12259
H         40.92431       10.29965       91.63509

Ca 1.0



