%chk=apoCaM-CA-Ng.loop1.water3.frame1330.chk
%nprocshared=20
%mem=10GB
%nosave
#b3lyp/svp scf=(tight,noincore,xqc) Test 
#IOP(5/87=12) Density=Current Pop=(MK,readradii) iop(6/33=2) iop(6/42=6)

apoCaM-CA-Ng.loop1.water3.frame1330 

   0  1 
C         46.46421       43.04883      104.69796
C         47.38996       43.53749      105.77350
O         47.46903       44.74250      105.96952
H         45.43198       43.39532      104.91275
H         46.78605       43.45721      103.71584
H         46.46279       41.94093      104.63404
N         48.14284       42.65816      106.50048
C         49.07519       43.07750      107.54904
C         50.47175       43.32936      106.98778
O         51.45664       42.88336      107.56212
C         49.09209       42.03846      108.69882
C         49.61696       40.66894      108.30596
O         49.67730       39.69650      109.23349
O         50.00114       40.42884      107.17048
H         48.04035       41.65419      106.29566
H         48.71569       44.04005      107.97305
H         48.05912       41.91955      109.08807
H         49.72875       42.42497      109.52378
N         50.62505       44.01859      105.82974
C         51.91311       44.24802      105.19792
C         52.74414       45.22909      106.01196
O         53.86648       44.86337      106.33269
C         51.72407       44.58224      103.69804
C         51.08288       43.34692      103.01035
C         50.76465       43.52577      101.52662
C         50.10815       42.23769      100.98996
N         49.70258       42.38157       99.59431
H         49.78751       44.34329      105.33434
H         52.48128       43.28821      105.18004
H         52.71249       44.77453      103.22581
H         51.08887       45.48331      103.56909
H         50.12664       43.09327      103.51414
H         51.76883       42.47672      103.12326
H         51.69437       43.74185      100.95716
H         50.05834       44.37532      101.41037
H         49.20674       41.99588      101.59822
H         50.82157       41.38726      101.08197
H         49.26475       41.48663       99.27485
H         48.99768       43.14918       99.50720
H         50.53392       42.58782       98.99553
N         52.30640       46.43338      106.49095
C         50.99535       47.05065      106.29253
C         50.16355       46.98980      107.57719
O         50.64566       46.52307      108.59994
C         51.17288       48.47766      105.70571
C         52.29270       49.27346      106.34102
O         52.26509       49.65535      107.63187
O         53.27475       49.54829      105.66941
H         52.96122       46.93626      107.11074
H         50.39708       46.48603      105.55752
H         50.21948       49.04804      105.71846
H         51.45583       48.34392      104.63765
N         48.84776       47.35875      107.54670
C         47.89936       47.16968      108.64297
C         48.17059       48.03343      109.88591
O         48.28001       49.36186      109.50255
H         48.46346       47.71561      106.65857
H         47.87184       46.09926      108.93373
H         46.88797       47.43432      108.26744
N         47.04477       47.90942      110.82807
C         47.11361       48.81922      111.99809
C         45.70546       49.03786      112.55736
O         44.83055       48.23695      112.25932
C         48.04714       48.23814      113.09032
C         49.46937       48.12409      112.62375
O         50.09257       49.12329      112.30142
O         50.06628       46.91855      112.56777
H         46.91562       46.91497      111.12829
H         47.48144       49.80951      111.66933
H         47.67037       47.23597      113.38955
H         48.05363       48.86357      113.99986
N         45.37078       50.08788      113.37354
C         46.25999       51.18142      113.73522
C         46.57586       52.07542      112.56032
O         45.95190       51.95822      111.51753
H         44.41057       50.12496      113.75038
H         47.18706       50.78729      114.18208
H         45.78047       51.82404      114.50534
N         47.55939       53.00585      112.67793
C         47.94630       53.92619      111.61294
C         48.35704       53.18840      110.33742
O         49.10905       52.22852      110.39797
C         49.07001       54.87200      112.10866
C         49.40957       55.96225      111.08648
O         50.23455       54.14774      112.41145
H         48.05510       53.05740      113.58095
H         47.07124       54.57591      111.38728
H         48.70343       55.40929      113.01654
H         50.20528       53.92091      113.37656
H         48.50547       56.56206      110.84557
H         50.17564       56.64363      111.51238
H         49.81158       55.52382      110.14914
N         47.91382       53.66549      109.13762
C         48.21039       53.16658      107.79372
C         49.70663       53.09625      107.54116
O         50.34578       52.17736      108.02762
C         47.50880       51.81660      107.43055
C         46.10734       51.71748      108.07810
C         47.44014       51.66051      105.89786
C         45.33691       50.43739      107.75280
H         47.32942       54.51495      109.16376
H         47.76655       53.93148      107.11622
H         48.10830       50.97880      107.82427
H         45.48353       52.59434      107.80789
H         46.26008       51.71412      109.17049
H         47.02380       50.67264      105.61224
H         46.79652       52.45466      105.46029
H         48.45133       51.72988      105.44629
H         44.40994       50.40313      108.36398
H         45.03904       50.41400      106.68536
H         45.94503       49.54265      107.98989
N         50.33434       54.02093      106.76984
C         51.75292       53.95073      106.43477
C         52.55367       55.14097      106.95390
O         53.73921       55.17095      106.67314
C         51.92215       53.75831      104.90467
C         51.24449       54.84964      104.07104
O         51.38732       52.51600      104.52648
H         49.77532       54.79999      106.39211
H         52.23475       53.06244      106.90335
H         53.00871       53.77777      104.64944
H         52.07098       51.83050      104.74893
H         50.14280       54.82441      104.20491
H         51.62648       55.85333      104.34906
H         51.44726       54.67227      102.99424
N         52.00880       56.13544      107.72858
C         52.80579       57.26150      108.23490
C         53.88491       56.73359      109.18061
O         53.58042       56.42032      110.32237
C         51.88473       58.30379      108.92100
C         52.64692       59.54575      109.39045
O         50.89071       58.70095      108.01025
H         51.00684       56.09869      107.95618
H         53.27881       57.75535      107.35699
H         51.41008       57.81464      109.80286
H         50.10494       58.99099      108.54417
H         53.12234       60.05504      108.52573
H         51.93779       60.25306      109.87242
H         53.42624       59.27781      110.13319
N         55.13556       56.46672      108.69160
C         56.18331       55.69173      109.36290
C         55.70723       54.29615      109.74917
O         54.51758       54.08284      109.90836
C         56.82743       56.39345      110.57089
C         57.47276       57.73759      110.20233
C         58.31588       58.26148      111.37815
C         59.03421       59.58743      111.07919
N         58.09990       60.70274      110.92494
H         55.33469       56.73541      107.71632
H         56.99013       55.54602      108.60801
H         57.62954       55.71906      110.94741
H         56.08799       56.53958      111.38751
H         56.67285       58.45506      109.92410
H         58.14977       57.59728      109.33081
H         59.10183       57.50437      111.59716
H         57.68658       58.37775      112.28670
H         59.66353       59.48599      110.16687
H         59.71073       59.81068      111.93427
H         58.64575       61.58480      110.79350
H         57.48968       60.56498      110.08916
H         57.51316       60.79805      111.78573
N         56.59092       53.26960      109.88698
C         56.16904       51.91774      110.25357
C         55.07023       51.40461      109.32234
O         54.01727       51.06160      109.84051
C         57.35791       50.93681      110.32386
C         58.34640       51.29543      111.44255
C         59.49677       50.33023      111.45545
O         60.63676       50.73271      111.28658
O         59.27760       49.01580      111.65184
H         57.58791       53.45637      109.70020
H         55.72981       51.95161      111.27825
H         57.90306       50.91387      109.36413
H         56.96276       49.91652      110.52978
H         57.83027       51.25615      112.42618
H         58.73856       52.32353      111.29515
N         55.16198       51.35008      107.96206
C         56.30513       51.74482      107.17257
H         57.16718       51.08574      107.37324
H         56.06003       51.63401      106.09464
H         56.55999       52.80722      107.35425
H         54.33610       51.02972      107.44101
Ca        50.41841       49.59467      108.87151
O         52.76229       48.17954      110.82021
H         53.46515       48.05926      111.50719
H         52.28800       47.31084      110.79667
O         52.52883       51.15495      112.62785
H         53.17897       50.49451      112.97625
H         53.07852       51.94724      112.40353
O         51.86245       53.09601      110.22233
H         52.07862       53.92705      110.71193
H         52.23187       53.24587      109.31801

Ca 1.0



