%chk=apoCaM-CA-Ng.loop4.water5.frame686.chk
%nprocshared=20
%mem=10GB
%nosave
#b3lyp/svp scf=(tight,noincore,xqc) Test 
#IOP(5/87=12) Density=Current Pop=(MK,readradii) iop(6/33=2) iop(6/42=6)

apoCaM-CA-Ng.loop4.water5.frame686 

   -3  1 
C        -15.01794       75.75762       95.09143
C        -15.05893       76.74047       96.22609
O        -14.30451       77.70142       96.20517
H        -15.25974       76.27634       94.14052
H        -14.00453       75.31066       95.02056
H        -15.75247       74.93667       95.23852
N        -15.93194       76.55891       97.25615
C        -16.06334       77.44285       98.41132
C        -16.47677       78.83563       97.96751
O        -15.84371       79.81666       98.33698
C        -14.77225       77.45834       99.26050
C        -14.26177       76.07080       99.50944
O        -14.93389       75.24484      100.10691
O        -13.05927       75.73772       99.00604
H        -16.55894       75.73961       97.22853
H        -16.88126       77.03168       99.04541
H        -14.95011       77.98623      100.22244
H        -13.97731       78.00866       98.71258
N        -17.53117       78.98154       97.11960
C        -17.96754       80.28512       96.61809
C        -18.57261       81.10717       97.76166
O        -18.89430       80.51392       98.78275
C        -18.98364       80.10178       95.43552
C        -20.30267       79.41631       95.89135
C        -18.30705       79.35698       94.26483
C        -21.37088       79.36088       94.79863
H        -17.99623       78.12295       96.79403
H        -17.06777       80.80615       96.22421
H        -19.26312       81.09111       95.04207
H        -20.73942       80.00094       96.72848
H        -20.11819       78.38451       96.25358
H        -18.03547       78.31630       94.53704
H        -18.96770       79.32100       93.37577
H        -17.38364       79.89256       93.95702
H        -21.04957       78.72588       93.94909
H        -22.29962       78.91889       95.21714
H        -21.60032       80.38435       94.43304
N        -18.81768       82.45137       97.70185
C        -18.39029       83.36052       96.64411
C        -16.88200       83.53287       96.61598
O        -16.31181       83.46714       95.53479
C        -19.13960       84.71873       96.69762
C        -19.05720       85.56712       97.94291
O        -19.64853       86.63448       97.96392
O        -18.38668       85.17758       99.03953
H        -19.32360       82.86268       98.50101
H        -18.70170       82.98108       95.65756
H        -20.21872       84.50721       96.52919
H        -18.78320       85.33421       95.84160
N        -16.15749       83.74046       97.75407
C        -14.72383       83.96545       97.72742
C        -14.37979       85.29239       97.09100
O        -15.26842       86.07581       96.78106
H        -16.61664       83.70486       98.67246
H        -14.23597       83.13246       97.17703
H        -14.32198       83.97870       98.76426
N        -13.07437       85.60934       96.87286
C        -12.64426       86.88779       96.31274
C        -13.19333       87.18894       94.92055
O        -13.00123       88.31379       94.48156
C        -11.09859       87.00359       96.30961
C        -10.40833       86.00592       95.40856
O        -10.52968       84.68175       95.62042
O         -9.70174       86.39763       94.49476
H        -12.36520       84.92409       97.16983
H        -13.03238       87.68084       96.99074
H        -10.71984       86.86659       97.34451
H        -10.81852       88.03200       95.98707
N        -13.89248       86.28546       94.16743
C        -14.42054       86.63493       92.85675
C        -13.33737       86.86653       91.81908
O        -13.66190       87.37184       90.75534
H        -14.08444       85.33941       94.52249
H        -15.04193       87.55121       92.96687
H        -15.08320       85.82680       92.47803
N        -12.04137       86.48413       92.03299
C        -10.94816       86.67431       91.08024
C        -11.17646       85.92024       89.77093
O        -10.54742       86.24811       88.77461
C        -10.63499       88.17662       90.87117
C        -10.40430       88.88341       92.22054
C        -10.00115       90.32972       92.11226
N         -9.84740       91.06120       93.24100
O         -9.81292       90.84949       91.02226
H        -11.79943       86.01135       92.91308
H        -10.02738       86.23604       91.52519
H        -11.46401       88.68239       90.33220
H         -9.71166       88.26056       90.25600
H         -9.61525       88.35312       92.79335
H        -11.34794       88.84985       92.79313
H        -10.01425       90.63812       94.16689
H         -9.57194       92.05293       93.19304
N        -12.03954       84.86475       89.72000
C        -12.31520       84.07207       88.52432
C        -12.05817       82.58681       88.75560
O        -12.32694       81.81572       87.84213
C        -13.80406       84.26256       88.09862
C        -14.80071       83.90474       89.22068
C        -14.05821       85.68885       87.60201
H        -12.53881       84.59760       90.57881
H        -11.67234       84.38768       87.67271
H        -14.01035       83.59085       87.23539
H        -14.70465       84.59262       90.08603
H        -15.84239       83.98279       88.84667
H        -14.64339       82.86530       89.57484
H        -15.10934       85.78921       87.25683
H        -13.87294       86.43097       88.40200
H        -13.39069       85.91449       86.74336
N        -11.58621       82.09136       89.93955
C        -11.58954       80.65505       90.22384
C        -10.82318       80.34459       91.51008
O        -10.62180       81.22930       92.33138
C        -13.08611       80.23913       90.37991
C        -13.45188       78.77966       90.47749
N        -14.74596       78.44472       90.69333
O        -12.62051       77.89964       90.33826
H        -11.27245       82.74774       90.66616
H        -11.08132       80.13792       89.37865
H        -13.67168       80.61095       89.51580
H        -13.47425       80.75602       91.28590
H        -15.46492       79.17598       90.80520
H        -15.03339       77.45712       90.75207
N        -10.34523       79.09127       91.73958
C         -9.67224       78.70044       92.97248
C         -9.15979       77.28359       92.84069
O         -9.95801       76.38303       92.61489
C        -10.64196       78.78301       94.17857
C        -10.02268       78.21109       95.43548
C        -10.60483       77.09291       96.05783
C         -8.85048       78.76445       95.97784
C        -10.02027       76.53339       97.19588
C         -8.26598       78.20037       97.11624
C         -8.84577       77.08298       97.72703
O         -8.26618       76.54504       98.81876
H        -10.44620       78.38730       90.99550
H         -8.80758       79.37752       93.14575
H        -11.56356       78.21226       93.92601
H        -10.94346       79.83347       94.36795
H        -11.50589       76.64497       95.65731
H         -8.38264       79.62361       95.51416
H        -10.47703       75.66855       97.65877
H         -7.35774       78.62924       97.52043
H         -8.63303       75.76806       99.26458
N         -7.83207       77.01690       92.99927
C         -7.28614       75.67466       92.90995
C         -6.63276       75.31616       94.23589
O         -5.57994       75.87339       94.51668
C         -6.25455       75.60305       91.76214
C         -6.86740       75.98425       90.40583
C         -5.82684       75.96329       89.32319
O         -5.95215       75.22087       88.36285
O         -4.75815       76.78074       89.39752
H         -7.18142       77.79263       93.19873
H         -8.08607       74.96279       92.67200
H         -5.84055       74.57209       91.70053
H         -5.41827       76.30480       91.98095
H         -7.28782       77.01187       90.45022
H         -7.68906       75.27625       90.16110
N         -7.15998       74.44349       95.14893
C         -8.47352       73.80060       95.08962
C         -8.59614       72.85560       93.91054
O         -7.78577       71.94817       93.77874
C         -8.71258       72.99747       96.39175
C        -10.13784       72.42452       96.49690
C        -10.24191       71.48592       97.66823
O        -11.05093       71.75033       98.71156
O         -9.58066       70.45978       97.67701
H         -6.59874       74.28825       96.00248
H         -9.24802       74.59744       95.03623
H         -8.54870       73.65434       97.27567
H         -7.96499       72.17449       96.43363
H        -10.40544       71.84542       95.58829
H        -10.85659       73.26664       96.59326
N         -9.62462       72.99440       93.02935
C         -9.80774       72.09795       91.91135
H        -10.71139       72.39271       91.33651
H         -8.92455       72.14337       91.24028
H         -9.94555       71.05930       92.28055
H        -10.31093       73.75252       93.16239
Ca       -12.22526       73.65678       98.90468
O        -14.54443       72.15544      102.06697
H        -15.16826       71.42843      102.31775
H        -14.44758       72.69418      102.89181
O        -15.64694       70.89776       99.24193
H        -15.76605       70.31457      100.03317
H        -16.09668       70.41093       98.50641
O        -11.55242       74.15063      101.79688
H        -12.30821       74.34756      102.40525
H        -11.43894       73.16827      101.85049
O        -12.76012       70.16617      100.48688
H        -11.79303       70.06358      100.67263
H        -13.19219       69.45731      101.02576
O        -13.89647       72.01244       96.70183
H        -13.90424       71.04024       96.51384
H        -13.37787       72.40592       95.95576

Ca 1.0



