%chk=apoCaM-CA-Ng.loop1.water3.frame210.chk
%nprocshared=20
%mem=10GB
%nosave
#b3lyp/svp scf=(tight,noincore,xqc) Test 
#IOP(5/87=12) Density=Current Pop=(MK,readradii) iop(6/33=2) iop(6/42=6)

apoCaM-CA-Ng.loop1.water3.frame210 

   0  1 
C         10.16586       29.71836       74.47380
C         10.72847       28.92465       75.61212
O         11.07274       27.76596       75.42239
H          9.13553       30.04564       74.72508
H         10.80093       30.61059       74.29219
H         10.13325       29.10629       73.54736
N         10.86272       29.49799       76.84088
C         11.44250       28.78874       77.97578
C         10.58036       27.63771       78.49917
O         11.02295       26.98731       79.42329
C         11.87414       29.76750       79.09295
C         10.75372       30.41045       79.85239
O         10.69032       30.24389       81.18628
O          9.93296       31.11647       79.28928
H         10.61027       30.49281       76.94003
H         12.39302       28.34613       77.62588
H         12.51461       30.56187       78.65040
H         12.50295       29.21063       79.82200
N          9.38774       27.27827       77.94141
C          8.61620       26.10098       78.34578
C          8.72127       25.05238       77.23589
O          8.45600       25.41965       76.09927
C          7.12777       26.46963       78.54054
C          6.76313       27.19167       79.84934
C          7.38824       28.57346       80.07533
C          6.81895       29.18031       81.37317
N          7.35340       30.51450       81.63434
H          9.02850       27.80593       77.13576
H          8.97724       25.67713       79.29181
H          6.55225       25.51758       78.58326
H          6.75732       27.04039       77.66123
H          7.02072       26.53489       80.70159
H          5.65715       27.30961       79.84487
H          7.14186       29.23667       79.21854
H          8.49014       28.48356       80.16462
H          7.05933       28.51688       82.23460
H          5.71185       29.25205       81.28848
H          8.37923       30.45974       81.80201
H          7.15267       31.15221       80.83046
H          6.90338       30.89978       82.49608
N          9.05038       23.72791       77.42126
C          9.31173       23.02228       78.67900
C          8.11874       23.12068       79.61682
O          8.22618       23.77101       80.64045
C         10.65199       23.42142       79.34899
C         11.86313       23.05347       78.54142
O         11.75949       22.57341       77.42367
O         13.08391       23.21304       79.08650
H          9.06198       23.13561       76.57570
H          9.44456       21.94068       78.46136
H         10.73550       22.84944       80.29733
H         10.70983       24.49069       79.60264
N          6.94029       22.47756       79.38745
C          6.75639       21.49344       78.33100
C          5.36334       20.87460       78.34329
O          4.48598       21.39156       79.02048
H          6.18380       22.63591       80.07024
H          7.49054       20.68618       78.53934
H          6.95269       21.92960       77.32913
N          5.06265       19.72323       77.67157
C          6.02475       18.92398       76.91697
C          6.37417       17.67907       77.70920
O          5.74212       17.41410       78.72468
C          5.51630       18.59788       75.49550
C          4.27476       17.73920       75.46262
O          3.10755       18.19250       75.95780
O          4.31322       16.63357       74.94687
H          4.11433       19.34312       77.80320
H          6.97021       19.48646       76.79286
H          6.32732       18.06561       74.95161
H          5.31282       19.54356       74.94947
N          7.43582       16.90237       77.34811
C          7.87160       15.77009       78.15045
C          8.35468       16.16721       79.53977
O          8.61907       15.26865       80.32560
H          7.96524       17.12940       76.49300
H          8.70310       15.24036       77.63721
H          7.02018       15.06177       78.24611
N          8.50321       17.47444       79.91704
C          8.89309       17.89617       81.26000
C          7.80193       18.76648       81.87016
O          6.82366       19.06987       81.19900
C         10.26150       18.63310       81.22486
C         10.27076       19.90035       80.35559
O         11.28191       17.75664       80.81618
H          8.32891       18.22210       79.23339
H          9.00595       17.01335       81.92632
H         10.51040       18.95306       82.25882
H         11.11574       17.51424       79.86824
H         10.08749       19.65895       79.28805
H          9.49816       20.61729       80.70358
H         11.26412       20.39149       80.42518
N          7.90690       19.19189       83.16235
C          6.90917       20.02862       83.82093
C          7.56921       21.33964       84.20441
O          7.13802       22.37549       83.71588
C          6.29148       19.28592       85.04295
C          5.65571       17.94647       84.58075
C          5.24889       20.18152       85.74442
C          5.11420       17.08693       85.72473
H          8.73014       18.90322       83.71193
H          6.07388       20.26206       83.12126
H          7.10082       19.05440       85.76941
H          6.42914       17.33467       84.06914
H          4.83684       18.14366       83.85440
H          5.70892       21.13276       86.08348
H          4.40988       20.41802       85.05514
H          4.84232       19.69314       86.65201
H          4.27129       17.58278       86.24577
H          4.73348       16.12813       85.31333
H          5.92237       16.86304       86.45283
N          8.63417       21.37311       85.06234
C          9.32611       22.61828       85.40656
C          9.94657       23.25370       84.16405
O          9.90894       22.63656       83.10639
C         10.36443       22.39572       86.53692
C         11.52684       21.47683       86.13331
O          9.70357       21.85471       87.65338
H          8.94802       20.48761       85.48360
H          8.56158       23.32326       85.80368
H         10.78519       23.39162       86.80822
H         10.25844       22.05890       88.45097
H         11.17171       20.46152       85.86346
H         12.08346       21.90583       85.27473
H         12.23158       21.37741       86.98640
N         10.48326       24.51175       84.20229
C         10.90566       25.21146       82.98667
C         12.37504       25.59586       83.00231
O         13.01925       25.47817       84.03555
C          9.99818       26.45752       82.76738
C         10.25965       27.60072       83.75089
O          8.64967       26.09868       82.89431
H         10.51381       25.01486       85.10131
H         10.76628       24.54351       82.11224
H         10.17849       26.87948       81.75632
H          8.43137       25.54906       82.10853
H          9.57254       28.44322       83.51903
H         10.07910       27.28037       84.79678
H         11.29826       27.97585       83.65242
N         12.96495       26.07582       81.86376
C         14.32825       26.60574       81.82662
C         14.98703       26.66766       80.42248
O         16.15628       27.02005       80.37246
C         14.30510       27.98862       82.54141
C         15.66836       28.64635       82.83289
C         16.65772       27.74319       83.59277
C         16.11965       27.22832       84.93870
N         17.08073       26.32419       85.56718
H         12.38732       26.08353       81.02800
H         14.95999       25.89226       82.39591
H         13.79192       27.87730       83.51794
H         13.68476       28.69733       81.95048
H         15.48275       29.56946       83.42588
H         16.14243       28.96653       81.88264
H         17.59062       28.31969       83.77305
H         16.92265       26.87843       82.95107
H         15.17734       26.66601       84.78732
H         15.90863       28.08659       85.61394
H         17.25305       25.50196       84.94272
H         17.98051       26.82253       85.75228
H         16.68510       25.97804       86.47097
N         14.37058       26.28638       79.25800
C         15.06316       26.22428       77.96502
C         15.56944       27.58246       77.50964
O         14.78492       28.50773       77.36453
C         14.13157       25.61146       76.88552
C         14.75354       25.50360       75.47973
C         16.04962       24.73484       75.45025
O         16.11060       23.43003       75.78541
O         17.07156       25.29924       75.09463
H         13.39948       25.96382       79.26987
H         15.92611       25.53100       78.07130
H         13.20308       26.21693       76.80176
H         13.84155       24.59814       77.21081
H         14.93228       26.53071       75.09362
H         14.02619       25.01383       74.79706
N         16.88530       27.74811       77.20092
C         17.40246       28.98834       76.66576
H         18.48824       28.88443       76.45425
H         16.88455       29.23144       75.71222
H         17.25195       29.81297       77.39239
H         17.53914       26.95850       77.31102
Ca        14.34307       22.12998       76.31107
O         16.44623       22.33769       78.80672
H         16.70908       22.12358       79.73701
H         17.30442       22.43708       78.32284
O         12.93990       18.95453       76.99753
H         12.42502       19.03654       76.15568
H         12.43068       18.29902       77.53753
O         14.94707       19.56738       79.46069
H         15.56390       18.81552       79.64739
H         14.52948       19.76954       80.33546

Ca 1.0



