%chk=apoCaM-CA-Ng.loop3.water7.frame424.chk
%nprocshared=20
%mem=10GB
%nosave
#b3lyp/svp scf=(tight,noincore,xqc) Test 
#IOP(5/87=12) Density=Current Pop=(MK,readradii) iop(6/33=2) iop(6/42=6)

apoCaM-CA-Ng.loop3.water7.frame424 

   0  1 
C         69.20307       50.96280       58.55110
C         67.86958       51.66102       58.52631
O         67.04607       51.40336       59.39195
H         69.73779       51.19132       59.49558
H         69.05039       49.86524       58.47416
H         69.84437       51.27840       57.69976
N         67.58034       52.54562       57.53335
C         66.28884       53.21019       57.38532
C         66.00665       54.16370       58.54186
O         66.83092       55.02009       58.82999
C         66.26442       53.98756       56.04905
C         64.90889       54.53518       55.67174
O         63.81832       54.30645       56.42903
O         64.78969       55.17168       54.63791
H         68.30288       52.71540       56.81587
H         65.50104       52.42641       57.31570
H         66.56606       53.29837       55.23020
H         67.00161       54.81870       56.09437
N         64.80538       54.11565       59.18440
C         64.37451       55.05304       60.22141
C         63.97462       54.28948       61.47582
O         64.17169       53.08219       61.52357
C         63.24854       55.94463       59.64079
C         63.84657       56.95458       58.63891
C         62.78414       57.84125       57.98083
C         63.45017       58.90654       57.09297
N         62.45194       59.72044       56.40084
H         64.11611       53.41124       58.87817
H         65.19891       55.73011       60.53737
H         62.76755       56.54946       60.43586
H         62.46583       55.31109       59.16894
H         64.40601       56.42778       57.83980
H         64.56294       57.60338       59.19183
H         62.17913       58.35293       58.76081
H         62.11418       57.20218       57.36572
H         64.10397       58.41613       56.33774
H         64.08558       59.56659       57.72650
H         61.88576       59.11891       55.75948
H         61.82446       60.19214       57.09166
H         62.94052       60.45065       55.83323
N         63.45397       54.94094       62.55987
C         63.26241       54.29872       63.85765
C         61.79044       54.08256       64.17165
O         60.93375       54.63802       63.49709
C         63.97560       55.17664       64.90935
C         63.97591       54.61507       66.29530
O         64.50524       53.53994       66.52212
O         63.42975       55.32013       67.30382
H         63.23842       55.94648       62.49092
H         63.72730       53.28914       63.84025
H         63.49426       56.18086       64.92664
H         65.03481       55.31243       64.60057
N         61.43010       53.18515       65.13857
C         60.04693       52.84378       65.42817
C         59.29476       53.94264       66.14025
O         58.07599       53.86076       66.19528
H         62.16503       52.65918       65.63062
H         60.00092       51.94233       66.07715
H         59.54147       52.58835       64.47192
N         59.94558       54.96635       66.76297
C         59.26588       56.05575       67.44926
C         59.68131       57.40364       66.86136
O         59.24825       58.42485       67.37617
C         59.57313       55.95083       68.95943
C         58.70387       56.86117       69.79588
N         59.24617       57.76720       70.63856
O         57.48777       56.75932       69.72692
H         60.97452       54.96809       66.78199
H         58.16465       55.95753       67.33161
H         60.65526       56.13266       69.14437
H         59.33761       54.91644       69.28767
H         60.26511       57.85844       70.73252
H         58.63850       58.36967       71.21289
N         60.49554       57.49125       65.76267
C         60.90384       58.75970       65.18399
C         61.88562       59.52435       66.04749
O         62.20940       60.64698       65.67921
H         60.81456       56.64435       65.27614
H         59.99646       59.37009       64.98838
H         61.40582       58.57474       64.20888
N         62.43421       58.98892       67.17590
C         63.38563       59.68648       68.02769
C         62.83062       59.77110       69.43188
O         62.44198       58.74935       69.98346
C         64.73153       58.93903       68.04043
C         65.73701       59.64885       68.92313
C         66.17136       60.95087       68.61286
C         66.23264       59.02175       70.07750
C         67.07873       61.61169       69.44617
C         67.14082       59.68335       70.90789
C         67.56511       60.98279       70.59594
O         68.43074       61.63727       71.39608
H         62.19046       58.02515       67.45173
H         63.57871       60.71275       67.64529
H         65.13954       58.87183       67.00845
H         64.55847       57.90222       68.40287
H         65.80504       61.45889       67.72995
H         65.90740       58.02599       70.34460
H         67.39928       62.61657       69.20107
H         67.50605       59.18833       71.79867
H         68.77739       61.24324       72.20943
N         62.82143       60.95276       70.09987
C         62.29688       61.09260       71.45087
C         60.77914       61.03256       71.39376
O         60.19368       60.27875       72.15542
C         62.81256       62.40133       72.12598
C         64.36748       62.47728       72.17215
C         62.26190       62.55841       73.55810
C         65.05224       61.39711       73.02312
H         63.22555       61.78101       69.63406
H         62.67001       60.26076       72.08891
H         62.45661       63.26755       71.52530
H         64.65873       63.46674       72.58647
H         64.78173       62.42491       71.14537
H         62.53157       61.69451       74.19953
H         62.64391       63.49199       74.02179
H         61.16871       62.62300       73.55980
H         64.73849       61.45161       74.08469
H         64.84853       60.38067       72.63052
H         66.14853       61.55904       73.00647
N         60.07805       61.78048       70.48493
C         58.61520       61.76511       70.42491
C         57.99737       62.49285       71.61226
O         56.80572       62.33969       71.84447
C         58.10517       62.37514       69.11173
O         58.48468       63.72079       69.01874
H         60.60228       62.34642       69.80151
H         58.28876       60.70159       70.43514
H         56.99488       62.29277       69.07857
H         58.53796       61.80159       68.26108
H         58.11372       64.05059       68.15957
N         58.75628       63.29863       72.40895
C         58.30731       63.95272       73.62803
C         57.81713       62.92875       74.64121
O         56.78970       63.12684       75.27255
C         57.29364       65.06394       73.33039
H         59.74253       63.44977       72.16190
H         59.20090       64.44307       74.07690
H         57.04012       65.60886       74.26448
H         57.73745       65.79023       72.61574
H         56.36280       64.65252       72.89010
N         58.53127       61.78310       74.82254
C         58.21245       60.74640       75.79076
C         59.43632       60.47084       76.63705
O         60.54422       60.57596       76.12906
C         57.80303       59.46890       75.05939
H         59.34662       61.61788       74.22105
H         57.35979       61.04529       76.43907
H         56.90091       59.66414       74.44123
H         58.62019       59.10754       74.39940
H         57.55590       58.67433       75.79672
N         59.31073       60.10321       77.94569
C         60.44507       59.81249       78.82178
C         61.28766       61.06225       79.10738
O         62.27396       60.95214       79.82105
C         61.25547       58.61479       78.24436
C         62.27877       58.01058       79.22078
C         62.91917       56.78455       78.63324
O         63.57778       56.86297       77.60809
O         62.77616       55.59182       79.24230
H         58.36368       59.99927       78.33949
H         60.03216       59.47719       79.79908
H         61.77683       58.89703       77.30627
H         60.52551       57.80941       78.00429
H         61.75823       57.72816       80.16126
H         63.08446       58.73155       79.45971
N         60.94467       62.29857       78.63589
C         61.73956       63.47491       78.91232
H         62.75693       63.35231       78.48459
H         61.26603       64.36788       78.45020
H         61.81021       63.63872       80.00837
H         60.09229       62.43988       78.07908
Ca        63.91523       53.52199       69.55798
O         66.19110       51.92135       68.32555
H         66.35305       51.26000       69.04398
H         66.86338       52.63133       68.48225
O         63.09841       55.93177       71.28031
H         63.11536       56.18254       70.32259
H         63.78420       56.50942       71.70010
O         63.63584       50.88666       71.00063
H         63.97393       51.45880       71.73441
H         62.65651       51.03201       71.00542
O         65.66182       53.93692       71.91399
H         65.36839       53.44093       72.71876
H         66.53909       53.54122       71.68144
O         62.70118       51.30688       67.99775
H         63.01287       50.91842       67.14229
H         61.72126       51.39801       67.89142
O         65.93093       55.63478       69.08131
H         66.56368       55.69698       69.83981
H         66.46413       55.89046       68.28769
O         61.14178       53.30078       70.41284
H         60.47084       52.70070       70.00083
H         60.69954       53.65519       71.22434

Ca 1.0



