%chk=apoCaM-CA-Ng.loop1.water2.frame810.chk
%nprocshared=20
%mem=10GB
%nosave
#b3lyp/svp scf=(tight,noincore,xqc) Test 
#IOP(5/87=12) Density=Current Pop=(MK,readradii) iop(6/33=2) iop(6/42=6)

apoCaM-CA-Ng.loop1.water2.frame810 

   0  1 
C        116.12455       76.47538       54.22686
C        116.85419       77.77296       54.03761
O        118.07641       77.77114       54.04311
H        115.02353       76.61696       54.17631
H        116.42193       75.76625       53.42693
H        116.37884       76.04414       55.21687
N        116.15782       78.92906       53.86901
C        116.78243       80.23169       53.66346
C        116.50981       81.14925       54.85354
O        115.91768       80.70715       55.82877
C        116.37488       80.80520       52.28256
C        114.91109       81.05910       52.05947
O        113.98699       80.74082       52.98002
O        114.55438       81.59222       51.02093
H        115.13011       78.87913       53.90099
H        117.88887       80.13200       53.62407
H        116.72115       80.10725       51.49032
H        116.90806       81.76517       52.12319
N        116.96651       82.43470       54.85876
C        116.90880       83.32228       56.01689
C        115.81149       84.35300       55.82132
O        116.08080       85.54290       55.73169
C        118.31727       83.92874       56.25089
C        119.31363       82.83785       56.69662
C        120.76276       83.32771       56.86139
C        121.44188       83.62967       55.51413
N        122.85257       83.97148       55.70125
H        117.41330       82.80791       54.00871
H        116.62437       82.77527       56.94361
H        118.27449       84.69647       57.05508
H        118.65327       84.42547       55.31606
H        119.31459       81.98470       55.98471
H        118.96528       82.45775       57.68223
H        121.33551       82.50581       57.34452
H        120.80037       84.21380       57.53230
H        120.92831       84.46720       54.99700
H        121.37852       82.72595       54.86697
H        122.94103       84.83969       56.27691
H        123.35632       83.18359       56.17081
H        123.29197       84.13603       54.76652
N        114.51256       83.92823       55.83350
C        113.34590       84.80792       55.74328
C        112.07364       84.00607       56.07097
O        111.90918       82.92400       55.52697
C        113.25334       85.51068       54.35909
C        112.97958       84.55902       53.23584
O        113.86447       84.27753       52.44358
O        111.77917       83.95399       53.13795
H        114.35383       82.91975       55.98061
H        113.47803       85.61822       56.48500
H        114.20982       86.04000       54.16739
H        112.45123       86.27881       54.36271
N        111.10172       84.44496       56.92100
C        111.12841       85.72983       57.58387
C        112.13137       85.77813       58.70626
O        112.71051       84.76234       59.06830
H        110.25874       83.86171       57.04338
H        110.13410       85.93990       58.03355
H        111.32829       86.51877       56.82760
N        112.38219       86.97319       59.30047
C        113.30426       87.14034       60.41692
C        112.77400       88.17620       61.39972
O        111.77053       88.81846       61.11772
C        114.71298       87.49878       59.88574
C        114.80421       88.78300       59.09480
O        113.72991       89.57064       58.89436
O        115.87949       89.11618       58.62344
H        111.92408       87.80623       58.90079
H        113.39248       86.17707       60.96722
H        115.05486       86.66981       59.22717
H        115.42241       87.56408       60.73775
N        113.41615       88.40951       62.57970
C        113.01814       89.48258       63.47971
C        111.62746       89.34933       64.07540
O        111.18248       90.31705       64.67671
H        114.25491       87.85865       62.81630
H        113.06019       90.43035       62.89999
H        113.74557       89.56664       64.31507
N        110.88573       88.20792       63.97724
C        109.51882       88.08958       64.48893
C        108.56917       87.73863       63.34869
O        109.01798       87.64861       62.21187
C        109.46784       87.11539       65.69432
C        109.94377       85.69530       65.38333
O        110.25978       87.64584       66.72732
H        111.29582       87.38079       63.51900
H        109.15980       89.06679       64.88194
H        108.41054       87.06389       66.04156
H        109.87351       87.33156       67.58676
H        111.01514       85.68943       65.09868
H        109.82375       85.06584       66.29148
H        109.35023       85.24615       64.56746
N        107.23115       87.56571       63.56993
C        106.26379       87.34312       62.49257
C        105.20807       88.45367       62.46998
O        104.54669       88.59819       61.45269
C        105.62400       85.92112       62.60750
C        106.74269       84.85307       62.72995
C        104.70704       85.60899       61.40415
C        106.24120       83.42317       62.93039
H        106.88832       87.58502       64.53966
H        106.79426       87.39546       61.51585
H        105.01215       85.88512       63.53654
H        107.34568       85.08633       63.62663
H        107.40654       84.88599       61.83853
H        104.23104       84.61467       61.50758
H        103.86390       86.32132       61.33340
H        105.28678       85.63385       60.45619
H        107.11240       82.75359       63.09234
H        105.58106       83.36796       63.82170
H        105.70005       83.05223       62.03780
N        104.99015       89.27779       63.54250
C        103.99227       90.34074       63.54731
C        102.91961       90.05586       64.58282
O        103.17096       89.33768       65.54031
C        104.65861       91.72190       63.78935
C        105.38245       91.84527       65.14512
O        105.54368       92.02686       62.74002
H        105.52095       89.15104       64.40920
H        103.48132       90.38957       62.56127
H        103.85801       92.49342       63.77916
H        106.30801       91.39464       62.79171
H        106.22547       91.12738       65.22438
H        105.80111       92.86777       65.25413
H        104.68029       91.66770       65.98627
N        101.67693       90.59214       64.42543
C        100.58387       90.39605       65.36801
C         99.44593       89.64021       64.69141
O         99.06663       88.58337       65.17777
C        100.15605       91.77681       65.94379
C         99.03683       91.66293       66.98149
O         99.74043       92.65625       64.92924
H        101.49773       91.16994       63.59058
H        100.91952       89.78409       66.23527
H        101.03351       92.21457       66.47822
H        100.53191       93.18467       64.64658
H         98.11519       91.23994       66.52980
H         99.35694       91.01733       67.82570
H         98.79659       92.67204       67.38118
N         98.83466       90.14388       63.58502
C         97.63563       89.57538       62.97927
C         97.68256       89.70769       61.46976
O         97.96092       90.78841       60.96684
C         96.37867       90.25693       63.56230
C         96.47206       91.78695       63.66919
C         95.21190       92.36892       64.31383
C         95.43915       93.82867       64.72636
N         94.24162       94.38571       65.35174
H         99.15408       91.05459       63.22641
H         97.52338       88.49639       63.23042
H         96.25365       89.87721       64.60093
H         95.48211       89.94486       62.98140
H         96.64785       92.26361       62.68174
H         97.32542       92.02127       64.33498
H         94.96817       91.79620       65.23546
H         94.36085       92.28151       63.60334
H         95.71950       94.44180       63.84213
H         96.27824       93.86602       65.45913
H         94.44896       95.35556       65.68231
H         93.46120       94.41938       64.65692
H         93.95878       93.80362       66.17396
N         97.34260       88.64985       60.67793
C         97.30768       88.74440       59.22487
C         98.71181       88.91980       58.65668
O         98.92440       89.92281       57.99103
C         96.55109       87.55121       58.59038
C         96.30962       87.76511       57.08694
C         95.50727       86.63690       56.50532
O         95.99057       85.38017       56.52911
O         94.41710       86.85442       56.00047
H         97.02905       87.77569       61.12786
H         96.69263       89.63823       58.96785
H         95.55646       87.47490       59.08403
H         97.07985       86.59131       58.74666
H         97.27651       87.83094       56.54489
H         95.75733       88.72033       56.93928
N         99.74102       88.03688       58.84268
C         99.70617       86.82133       59.63362
H         98.74451       86.63855       60.13488
H         99.93137       85.95104       58.98242
H        100.48015       86.88171       60.42707
H        100.64473       88.25193       58.39345
Ca       112.02709       81.77715       52.78316
O        111.33720       80.41806       50.13779
H        111.84707       81.26490       50.07650
H        111.88930       79.83637       50.71901
O        112.53123       79.77979       55.67927
H        112.42703       79.08166       56.37352
H        113.08215       80.47890       56.11268

Ca 1.0



