%chk=apoCaM-CA-Ng.loop3.water4.frame36.chk
%nprocshared=20
%mem=10GB
%nosave
#b3lyp/svp scf=(tight,noincore,xqc) Test 
#IOP(5/87=12) Density=Current Pop=(MK,readradii) iop(6/33=2) iop(6/42=6)

apoCaM-CA-Ng.loop3.water4.frame36 

   0  1 
C         62.37638       91.82236       59.12645
C         62.19798       93.26658       59.50370
O         61.82603       94.05840       58.65269
H         61.41490       91.42019       58.74453
H         63.14444       91.71798       58.33833
H         62.68982       91.20938       59.99782
N         62.43260       93.67415       60.78203
C         62.21719       95.02688       61.29052
C         63.11254       96.05124       60.59704
O         62.61077       97.07379       60.14626
C         60.71993       95.42953       61.17946
C         59.75018       94.46060       61.80397
O         58.55333       94.68992       61.73469
O         60.17060       93.33963       62.42139
H         62.75889       92.97206       61.46420
H         62.49716       95.02112       62.36801
H         60.44500       95.52822       60.10755
H         60.57562       96.42196       61.65924
N         64.45173       95.83512       60.44708
C         65.32185       96.78046       59.74527
C         65.54886       96.37421       58.29549
O         66.25621       97.07726       57.58823
C         66.65531       96.96244       60.49582
C         66.43417       97.48913       61.92034
C         67.75364       97.93659       62.56005
C         67.51261       98.50050       63.96677
N         68.73976       99.07090       64.52080
H         64.84786       94.93214       60.75437
H         64.83831       97.78040       59.68899
H         67.25724       97.70932       59.93269
H         67.22843       96.00854       60.52990
H         65.94543       96.70452       62.53935
H         65.76486       98.37563       61.87385
H         68.19410       98.73666       61.92493
H         68.47125       97.08843       62.61297
H         67.13974       97.68960       64.63148
H         66.73945       99.29979       63.92126
H         69.49104       98.34559       64.56876
H         69.05808       99.87078       63.92572
H         68.54556       99.42905       65.48375
N         64.94283       95.27446       57.77090
C         65.08247       94.85097       56.38566
C         64.49572       95.90231       55.44244
O         63.40328       96.38452       55.70732
C         64.36401       93.49125       56.21884
C         64.85057       92.74497       55.01500
O         65.38452       91.65597       55.15648
O         64.79240       93.28340       53.79171
H         64.35491       94.69652       58.38281
H         66.16228       94.68029       56.18086
H         63.26205       93.61823       56.22461
H         64.62647       92.85100       57.08624
N         65.14946       96.27804       54.30388
C         64.61682       97.23752       53.33789
C         63.25560       96.81571       52.82829
O         62.31266       97.58701       52.93915
H         66.05528       95.83727       54.08692
H         65.31435       97.30619       52.47571
H         64.54631       98.24445       53.80469
N         63.07326       95.56399       52.32263
C         61.76655       95.01109       51.96506
C         60.79699       95.17795       53.12060
O         59.68880       95.65056       52.90708
C         61.88082       93.50539       51.64649
C         62.78817       93.21140       50.48174
N         62.51403       93.67286       49.24092
O         63.78043       92.52779       50.66090
H         63.89837       94.95245       52.26748
H         61.35819       95.53800       51.07380
H         60.87715       93.09992       51.41156
H         62.25779       92.97262       52.54865
H         61.67171       94.23583       49.05914
H         63.14375       93.45144       48.45476
N         61.18767       94.87609       54.39123
C         60.33759       95.08533       55.54665
C         59.36952       93.94872       55.64805
O         59.80327       92.83342       55.90212
H         62.15015       94.55419       54.54297
H         59.84212       96.07831       55.46470
H         60.94347       95.10082       56.47468
N         58.04847       94.14736       55.38823
C         57.02934       93.10371       55.33307
C         57.21992       92.10964       54.18213
O         56.27568       91.37340       53.94636
C         56.87997       92.38218       56.70121
C         55.77665       91.34513       56.69760
C         54.44476       91.71960       56.45170
C         56.07650       89.98745       56.91477
C         53.43460       90.75404       56.41226
C         55.06407       89.02428       56.87592
C         53.73896       89.40504       56.62130
O         52.75310       88.48646       56.57278
H         57.73622       95.10883       55.18118
H         56.07219       93.62629       55.11209
H         56.66675       93.13119       57.49353
H         57.83763       91.88565       56.95996
H         54.18900       92.75704       56.28024
H         57.09459       89.66942       57.10304
H         52.41401       91.05523       56.21318
H         55.31178       87.98253       57.03808
H         52.92135       87.54276       56.70663
N         58.36670       92.01140       53.43281
C         58.59491       91.08623       52.32339
C         58.13658       91.75131       51.03812
O         58.96317       91.97671       50.16551
C         58.04414       89.63329       52.55856
C         58.57690       89.05710       53.90062
C         58.42754       88.71292       51.38775
C         57.95695       87.70894       54.28093
H         59.16053       92.62777       53.61965
H         59.70060       90.96690       52.22892
H         56.93744       89.64847       52.58569
H         58.32862       89.74997       54.72930
H         59.68379       88.95990       53.86301
H         59.53119       88.63946       51.28859
H         58.00740       87.69566       51.50974
H         57.99566       89.09895       50.45067
H         58.34006       87.39410       55.27439
H         56.85136       87.80072       54.34465
H         58.21995       86.91279       53.55694
N         56.84188       92.12955       50.85931
C         56.35846       92.75597       49.63369
C         56.53093       91.81677       48.45668
O         56.95018       92.25613       47.39617
C         54.88570       93.17016       49.77820
O         54.06380       92.05863       50.02728
H         56.16942       91.96002       51.61734
H         56.92723       93.69477       49.44332
H         54.53927       93.67096       48.84884
H         54.80228       93.92629       50.59599
H         53.73594       92.13713       50.96122
N         56.29525       90.48340       48.61551
C         56.47147       89.47324       47.58255
C         57.84723       89.54169       46.92782
O         57.93673       89.39452       45.71391
C         55.32957       89.56421       46.56379
H         56.00915       90.14259       49.54570
H         56.38619       88.48160       48.08171
H         54.35308       89.48048       47.08703
H         55.36228       90.53477       46.02518
H         55.40080       88.73646       45.82680
N         58.96592       89.79217       47.66539
C         60.30693       89.84928       47.09954
C         61.23223       88.90378       47.82998
O         60.91874       88.48973       48.94068
C         60.85141       91.27573       47.19263
H         58.86517       89.97740       48.67032
H         60.28324       89.55594       46.02732
H         61.86696       91.33769       46.74692
H         60.18243       91.97199       46.64348
H         60.90638       91.59976       48.25369
N         62.39211       88.49019       47.24296
C         63.36267       87.60326       47.87920
C         62.79296       86.23540       48.25414
O         63.51651       85.46343       48.86956
C         64.00705       88.30067       49.09750
C         64.75606       89.57280       48.66665
C         65.49176       90.21638       49.80154
O         66.16788       91.20988       49.58905
O         65.42249       89.71152       51.04862
H         62.61053       88.82826       46.29221
H         64.18998       87.40421       47.16208
H         64.75083       87.60835       49.55087
H         63.24853       88.54425       49.87217
H         64.04415       90.31174       48.23901
H         65.50564       89.30508       47.89104
N         61.53640       85.83648       47.90182
C         61.00994       84.54569       48.28642
H         59.98261       84.42110       47.88295
H         61.65357       83.73587       47.88299
H         60.96712       84.47203       49.39414
H         60.92659       86.44002       47.33563
Ca        66.06034       92.22950       52.26775
O         68.98666       91.89184       51.43281
H         69.61162       92.52882       51.86167
H         68.86829       92.24051       50.51366
O         66.70119       94.92707       51.50418
H         67.64752       95.21632       51.52354
H         66.30919       95.39135       50.72297
O         68.09218       93.32848       54.31061
H         68.15257       94.25904       54.64262
H         68.36301       92.76974       55.08175
O         67.35226       89.45692       53.25511
H         66.67985       88.73057       53.22482
H         67.63006       89.49729       54.20411

Ca 1.0



