%chk=apoCaM-CA-Ng.loop2.water4.frame1402.chk
%nprocshared=20
%mem=10GB
%nosave
#b3lyp/svp scf=(tight,noincore,xqc) Test 
#IOP(5/87=12) Density=Current Pop=(MK,readradii) iop(6/33=2) iop(6/42=6)

apoCaM-CA-Ng.loop2.water4.frame1402 

   -2  1 
C         27.55915       79.99005       63.67927
C         27.96490       78.64438       64.23108
O         28.72735       77.98260       63.54130
H         26.84047       80.57164       64.27538
H         28.46630       80.61401       63.54052
H         27.08726       79.83214       62.68611
N         27.53234       78.10785       65.41412
C         26.64743       78.74232       66.39769
C         25.27947       78.06763       66.48999
O         24.38113       78.70288       67.02604
C         27.29612       78.79807       67.81267
C         27.57045       77.43072       68.39948
O         27.91729       77.25004       69.68410
O         27.43603       76.43230       67.71924
H         27.87460       77.15778       65.60570
H         26.44353       79.78440       66.11057
H         26.58678       79.32385       68.48916
H         28.24023       79.38292       67.79158
N         25.04014       76.79372       66.04693
C         23.71545       76.17740       66.09956
C         23.59984       75.05077       67.12612
O         22.49626       74.54517       67.27946
C         23.34161       75.68996       64.69727
H         25.81081       76.23242       65.65768
H         22.95639       76.93073       66.40342
H         23.37481       76.54035       63.98249
H         24.05637       74.91040       64.35573
H         22.31505       75.26669       64.68786
N         24.65173       74.62712       67.89126
C         24.52713       73.63108       68.95603
C         24.89609       74.20439       70.31611
O         25.29599       75.35614       70.40936
C         25.32262       72.35208       68.61772
C         26.76765       72.48377       68.18130
O         27.08233       71.99713       67.10637
O         27.75599       72.98932       68.95401
H         25.57812       75.03069       67.73751
H         23.46630       73.31426       69.06506
H         24.77854       71.85893       67.78085
H         25.27843       71.64695       69.47329
N         24.70828       73.44757       71.43810
C         24.96023       73.92069       72.78834
C         26.39402       73.67455       73.19094
O         27.28721       74.22663       72.56978
H         24.28286       72.51329       71.34145
H         24.28823       73.36715       73.47920
H         24.69301       74.99510       72.88750
N         26.68825       72.83872       74.22906
C         28.04725       72.55255       74.67195
C         28.35178       71.09055       74.42023
O         27.66990       70.23121       74.96251
C         28.19711       72.90630       76.16438
C         29.58332       72.59651       76.67955
N         29.76371       71.70747       77.68513
O         30.55184       73.15078       76.18125
H         25.91470       72.36544       74.72178
H         28.77915       73.17035       74.10630
H         27.44097       72.34171       76.75284
H         27.99774       73.99057       76.30713
H         28.96155       71.22741       78.11886
H         30.71073       71.49339       78.03140
N         29.37400       70.74661       73.58684
C         29.73499       69.37597       73.26741
C         29.56367       69.10808       71.78605
O         29.12121       69.99567       71.07041
H         29.92894       71.49340       73.14254
H         29.10498       68.65292       73.82770
H         30.79552       69.21966       73.55699
N         29.85914       67.90375       71.21846
C         30.38817       66.74391       71.93164
C         31.72945       66.27904       71.35647
O         32.26967       65.31506       71.87941
C         29.34899       65.59719       71.87129
C         28.03439       65.99684       72.55708
O         29.10101       65.25201       70.53172
H         29.66783       67.79601       70.20922
H         30.56924       66.97722       73.00059
H         29.76854       64.71824       72.41388
H         28.64834       64.36857       70.53915
H         28.21946       66.25428       73.62152
H         27.56783       66.86837       72.05052
H         27.31680       65.15008       72.52371
N         32.31811       66.89114       70.28342
C         33.55107       66.43246       69.64406
C         34.57105       67.57720       69.64908
O         34.21768       68.64535       69.16873
C         33.22609       65.99493       68.18335
C         32.12867       64.89573       68.10960
C         34.49225       65.54429       67.43491
C         32.48347       63.56333       68.78121
H         31.86134       67.70545       69.85067
H         33.95895       65.54162       70.14770
H         32.82163       66.87805       67.63921
H         31.90421       64.69024       67.04019
H         31.19317       65.27905       68.56948
H         35.22507       66.37309       67.39666
H         34.97609       64.68019       67.93417
H         34.24427       65.26497       66.38907
H         31.63486       62.85752       68.66091
H         33.37628       63.10115       68.31412
H         32.66319       63.69030       69.86612
N         35.86493       67.46665       70.09184
C         36.47852       66.24803       70.62215
C         38.00807       66.32901       70.67477
O         38.57887       67.40316       70.54226
C         35.95477       65.93635       72.04953
C         36.30880       67.02123       73.03517
O         37.09513       66.74111       74.09187
O         35.88015       68.15511       72.88844
H         36.45895       68.30064       69.96538
H         36.24668       65.42255       69.91628
H         36.39431       64.97680       72.39687
H         34.85800       65.81735       72.07230
N         38.73023       65.18934       70.88206
C         40.17623       65.15221       71.08061
C         40.84610       64.34816       69.96888
O         40.39528       63.23354       69.73446
C         40.45721       64.44878       72.42471
C         41.90428       64.58033       72.82463
C         42.79839       63.50578       72.68468
C         42.36711       65.79791       73.35086
C         44.13808       63.65458       73.06015
C         43.70117       65.93666       73.74022
C         44.58743       64.86711       73.59194
H         38.22044       64.29292       70.93273
H         40.58334       66.17847       71.14406
H         40.16595       63.37762       72.33561
H         39.83527       64.87611       73.24142
H         42.46445       62.56182       72.27238
H         41.68856       66.63343       73.47282
H         44.82851       62.82977       72.94103
H         44.04639       66.87371       74.15749
H         45.62180       64.97860       73.88998
N         41.95565       64.77074       69.27904
C         42.68665       66.01943       69.46737
C         41.85792       67.23500       69.14234
O         41.82117       68.17481       69.92299
C         43.84451       65.92495       68.45632
C         44.08020       64.43585       68.38443
C         42.64949       63.91516       68.33525
H         43.09778       66.04882       70.50073
H         43.50435       66.22144       67.43736
H         44.72945       66.54607       68.71282
H         44.72137       64.10334       67.54019
H         44.54238       64.11337       69.34488
H         42.20103       64.06380       67.32688
H         42.63753       62.83873       68.61078
N         41.15215       67.25981       67.98074
C         40.36763       68.39522       67.53208
C         41.31884       69.43368       66.95208
O         42.00120       69.11072       65.98917
C         39.37287       67.92798       66.44552
C         38.37313       66.89542       67.00122
C         37.51793       66.32936       65.90724
O         37.53313       65.00459       65.66164
O         36.79906       67.05839       65.24319
H         41.17081       66.41547       67.38786
H         39.76349       68.78762       68.37696
H         39.94283       67.46821       65.60667
H         38.80706       68.79935       66.04889
H         37.73040       67.37317       67.77104
H         38.91026       66.04962       67.48132
N         41.45928       70.69266       67.45267
C         40.73816       71.19350       68.59989
H         39.64612       71.17274       68.40556
H         40.97911       70.58716       69.49651
H         41.04284       72.24251       68.80217
H         42.12915       71.33053       66.99422
Ca        27.96777       75.00337       69.97526
O         30.26795       75.64175       72.20502
H         30.74289       74.90402       72.66399
H         30.94380       76.03125       71.59512
O         30.31418       72.94937       70.46316
H         31.02230       72.62144       71.07130
H         29.47003       72.65231       70.88624
O         27.27518       77.09753       72.56620
H         28.02991       77.64291       72.90166
H         26.82772       76.76202       73.38307
O         30.61591       75.57753       68.65202
H         31.03790       76.46177       68.79410
H         31.10520       75.18580       67.88591

Ca 1.0



