%chk=apoCaM-CA-Ng.loop3.water2.frame542.chk
%nprocshared=20
%mem=10GB
%nosave
#b3lyp/svp scf=(tight,noincore,xqc) Test 
#IOP(5/87=12) Density=Current Pop=(MK,readradii) iop(6/33=2) iop(6/42=6)

apoCaM-CA-Ng.loop3.water2.frame542 

   0  1 
C         60.06147       11.64633       71.43104
C         58.62958       11.31834       71.72381
O         57.80338       12.21796       71.78640
H         60.70432       11.28684       72.26148
H         60.36712       11.14163       70.48985
H         60.20006       12.74131       71.31180
N         58.26182       10.02198       71.90148
C         56.88519        9.61608       72.13768
C         56.36774       10.17666       73.44677
O         57.05969       10.06918       74.45090
C         56.77852        8.08523       72.18994
C         55.35683        7.61938       72.07866
O         55.09356        6.31440       72.15701
O         54.45872        8.38011       71.75059
H         58.99117        9.29468       71.82909
H         56.27619        9.97227       71.27661
H         57.24934        7.70133       73.11981
H         57.30979        7.63667       71.32210
N         55.12452       10.72727       73.52161
C         54.58477       11.29836       74.74861
C         53.73766       10.28628       75.52829
O         53.40902       10.56216       76.67249
C         53.84638       12.58773       74.35678
C         53.46412       13.52465       75.50492
C         52.82543       14.79318       74.91626
C         52.53282       15.84865       75.98403
N         51.93538       17.03974       75.37815
H         54.52930       10.72931       72.67833
H         55.43721       11.57160       75.40958
H         52.95152       12.31159       73.76463
H         54.53092       13.16268       73.69264
H         54.38866       13.80100       76.05704
H         52.75468       13.03322       76.20367
H         51.88027       14.52015       74.40325
H         53.51695       15.24100       74.16817
H         53.48352       16.13277       76.48792
H         51.83698       15.43095       76.74366
H         51.03285       16.79360       74.91017
H         51.75223       17.75080       76.12162
H         52.58855       17.45366       74.67523
N         53.39002        9.07713       74.98998
C         52.72323        7.99743       75.72079
C         53.55293        6.70117       75.71481
O         53.12858        5.73618       76.33539
C         51.30171        7.78361       75.15339
C         51.25553        7.57352       73.66119
O         51.86902        6.52349       73.09250
O         50.64746        8.36182       72.95490
H         53.60838        8.89633       74.00470
H         52.59945        8.27228       76.79125
H         50.70610        8.69286       75.38889
H         50.81442        6.92582       75.66660
N         54.75496        6.61576       75.07267
C         55.64279        5.45825       75.06845
C         55.15438        4.19375       74.37167
O         55.96243        3.27787       74.29102
H         55.12793        7.44927       74.60813
H         55.92386        5.20748       76.11309
H         56.57518        5.75774       74.54017
N         53.88561        4.01690       73.89208
C         53.41826        2.73713       73.35008
C         52.65201        2.88809       72.03728
O         52.36133        3.99630       71.61534
C         52.54908        2.05991       74.42721
C         53.39506        1.73534       75.63826
N         53.19320        2.35764       76.82269
O         54.29258        0.91145       75.53698
H         53.19148        4.75799       74.02187
H         54.28142        2.07117       73.12715
H         52.10038        1.11342       74.05899
H         51.71948        2.75038       74.69854
H         52.45943        3.07205       76.92915
H         53.79301        2.13990       77.63294
N         52.30582        1.77322       71.32927
C         51.59445        1.77280       70.05420
C         52.38135        2.45104       68.95123
O         53.53877        2.10351       68.76430
H         52.56890        0.85236       71.71392
H         50.58881        2.22948       70.17407
H         51.45055        0.71471       69.74522
N         51.79399        3.38790       68.14162
C         52.50200        4.12797       67.08698
C         53.43394        5.19780       67.70724
O         54.26013        4.56727       68.60651
C         51.49158        4.79950       66.12500
C         50.97358        3.83740       65.08572
C         49.63527        3.41808       65.07062
C         51.84669        3.38633       64.07813
C         49.17986        2.55865       64.06238
C         51.38769        2.54098       63.06703
C         50.05033        2.12437       63.05453
O         49.59115        1.31628       62.07754
H         50.78628        3.56325       68.27087
H         53.13858        3.42730       66.50114
H         51.96562        5.61882       65.54294
H         50.67268        5.26221       66.71563
H         48.94683        3.75398       65.83520
H         52.88075        3.71053       64.06258
H         48.14624        2.23775       64.05760
H         52.07078        2.21862       62.29048
H         50.15729        1.01381       61.35248
N         54.23962        5.89796       66.67126
C         55.48271        6.65242       67.02663
C         55.23806        7.97668       67.75702
O         54.77331        7.97883       68.88458
C         56.59185        5.82893       67.78489
C         57.91622        6.62330       67.99053
C         56.88557        4.47642       67.10537
C         58.66796        6.99541       66.70906
H         54.49877        5.21218       65.92403
H         55.93420        6.90618       66.04469
H         56.25292        5.62558       68.81939
H         58.60084        6.01143       68.61852
H         57.71206        7.55475       68.56116
H         55.98904        3.82778       67.07163
H         57.23192        4.61734       66.06245
H         57.65995        3.92400       67.67913
H         59.59395        7.54505       66.97874
H         58.96642        6.08926       66.14439
H         58.06143        7.65304       66.05736
N         55.69262        9.13824       67.19790
C         55.84002       10.41296       67.90976
C         54.54366       11.13525       68.27037
O         54.64501       12.23595       68.79612
C         56.72377       11.36169       67.06787
O         57.99174       10.79236       66.85955
H         56.09866        9.07684       66.25252
H         56.40050       10.22948       68.85275
H         56.88057       12.32509       67.59911
H         56.22572       11.60699       66.10003
H         58.00878       10.42908       65.93623
N         53.30541       10.60804       68.05681
C         52.07444       11.34148       68.34129
C         51.35663       10.74243       69.53646
O         51.10993        9.54682       69.51586
C         51.16554       11.28662       67.10984
H         53.21651        9.65665       67.67856
H         52.29435       12.40485       68.53496
H         50.22638       11.84837       67.29956
H         51.67828       11.73582       66.23388
H         50.90128       10.23508       66.86447
N         50.94292       11.46567       70.62191
C         51.10528       12.90505       70.83427
C         50.41075       13.71718       69.74464
O         49.23653       13.46075       69.51587
C         50.45562       13.29787       72.17057
H         50.45325       10.93378       71.36006
H         52.18172       13.12837       70.92889
H         49.36625       13.07894       72.15957
H         50.90403       12.72864       73.00603
H         50.59158       14.38197       72.36520
N         50.99633       14.73945       69.04517
C         52.34717       15.26134       69.24098
C         52.91058       15.73422       67.91167
O         53.93440       15.21440       67.48919
C         52.33047       16.38160       70.30530
C         53.74267       16.90050       70.62370
C         53.72600       17.89844       71.74614
O         53.09243       18.93677       71.64328
O         54.43144       17.65746       72.86802
H         50.38496       15.25046       68.38932
H         53.02450       14.46731       69.60408
H         51.90129       15.96432       71.24034
H         51.68115       17.22258       69.97602
H         54.18487       17.38000       69.72495
H         54.38674       16.04514       70.92358
N         52.28535       16.71135       67.19319
C         52.76020       17.18797       65.90925
H         53.69919       16.68878       65.59035
H         51.98461       16.99566       65.13817
H         52.94558       18.28069       65.96648
H         51.42134       17.13718       67.55968
Ca        53.95206        5.82788       70.37688
O         50.02499        6.07879       70.26548
H         49.80987        5.36032       69.61956
H         49.32242        6.76082       70.11790
O         51.50540        7.50989       67.76639
H         50.51626        7.51880       67.80415
H         51.72236        7.82094       66.85235

Ca 1.0



