%chk=apoCaM-CA-Ng.loop3.water3.frame892.chk
%nprocshared=20
%mem=10GB
%nosave
#b3lyp/svp scf=(tight,noincore,xqc) Test 
#IOP(5/87=12) Density=Current Pop=(MK,readradii) iop(6/33=2) iop(6/42=6)

apoCaM-CA-Ng.loop3.water3.frame892 

   0  1 
C         11.89112      -18.74921       -1.56393
C         11.99958      -19.04910       -3.02789
O         11.49986      -18.26523       -3.81984
H         12.37423      -17.77040       -1.35719
H         10.82210      -18.69648       -1.27193
H         12.39459      -19.52601       -0.95171
N         12.63844      -20.17202       -3.46302
C         12.84422      -20.48925       -4.87355
C         12.03218      -21.73926       -5.22733
O         11.50192      -22.36895       -4.32095
C         14.37768      -20.63365       -5.06757
C         14.93903      -20.64629       -6.46001
O         16.13488      -20.83906       -6.60633
O         14.18358      -20.44326       -7.54761
H         13.01403      -20.83068       -2.76228
H         12.46540      -19.65858       -5.49500
H         14.69834      -21.56115       -4.54449
H         14.88233      -19.78187       -4.56644
N         11.83254      -22.12650       -6.52170
C         11.00894      -23.26883       -6.91222
C         11.84704      -24.37738       -7.54292
O         11.45614      -25.52754       -7.40116
C          9.83423      -22.77178       -7.78635
C          8.95549      -23.90236       -8.35347
C          7.69483      -23.38526       -9.07170
C          6.62146      -22.88174       -8.08838
N          5.41864      -22.44513       -8.79785
H         12.23036      -21.56354       -7.27793
H         10.55503      -23.73420       -6.00877
H         10.22004      -22.17510       -8.64219
H          9.22934      -22.09620       -7.14549
H          8.64950      -24.61416       -7.55687
H          9.57165      -24.45459       -9.09589
H          7.25100      -24.23471       -9.63499
H          7.96898      -22.59331       -9.80338
H          7.00392      -22.03788       -7.47762
H          6.35011      -23.71424       -7.40041
H          5.03898      -23.22289       -9.38543
H          4.69116      -22.16837       -8.09908
H          5.63916      -21.62046       -9.40167
N         13.03333      -24.13517       -8.17631
C         13.93887      -25.20249       -8.61488
C         15.29396      -25.12634       -7.90347
O         16.06380      -26.06796       -8.04402
C         14.05461      -25.23130      -10.15826
C         14.36334      -23.88209      -10.73954
O         13.52934      -23.31445      -11.42621
O         15.48534      -23.23245      -10.40095
H         13.32574      -23.16236       -8.33281
H         13.52741      -26.19246       -8.31909
H         13.06614      -25.55039      -10.55676
H         14.80654      -25.98282      -10.48147
N         15.64723      -24.08143       -7.09417
C         16.83312      -24.07709       -6.25093
C         18.02465      -23.34797       -6.83706
O         19.01937      -23.24928       -6.13597
H         15.01535      -23.28116       -6.98250
H         17.15357      -25.11673       -6.01805
H         16.55908      -23.61478       -5.27740
N         18.04129      -22.88771       -8.12430
C         19.25166      -22.36283       -8.75966
C         19.00668      -21.03586       -9.47198
O         17.88140      -20.56688       -9.52560
C         19.72895      -23.40903       -9.79256
C         19.95680      -24.76447       -9.16552
N         20.88897      -24.93767       -8.20009
O         19.28757      -25.71779       -9.53618
H         17.21505      -23.02744       -8.71395
H         20.05482      -22.20610       -8.00867
H         20.67364      -23.08546      -10.27651
H         18.95175      -23.50647      -10.58435
H         21.46675      -24.14940       -7.87539
H         21.03368      -25.86569       -7.77504
N         20.04759      -20.40570      -10.09772
C         19.89258      -19.24776      -10.96633
C         19.37292      -18.02114      -10.25726
O         20.03163      -17.52402       -9.35616
H         20.99156      -20.81052      -10.01994
H         19.21777      -19.52952      -11.80256
H         20.87848      -18.98939      -11.41057
N         18.17754      -17.48251      -10.63090
C         17.58119      -16.30345      -10.01166
C         16.46052      -16.74169       -9.09054
O         16.26441      -17.93298       -8.91717
C         17.04692      -15.34081      -11.10339
C         18.11513      -14.71271      -11.96233
C         19.11635      -13.91623      -11.37983
C         18.08784      -14.86568      -13.35868
C         20.07345      -13.28598      -12.17969
C         19.04404      -14.23009      -14.15748
C         20.03788      -13.43787      -13.57293
O         20.94560      -12.82281      -14.35764
H         17.62268      -17.96912      -11.35173
H         18.31103      -15.77056       -9.36589
H         16.51506      -14.48814      -10.63715
H         16.30300      -15.88241      -11.72905
H         19.15012      -13.77054      -10.30774
H         17.31729      -15.46089      -13.83260
H         20.83495      -12.67159      -11.71591
H         19.00591      -14.34525      -15.23344
H         21.64143      -12.25714      -13.99319
N         15.70750      -15.80371       -8.43595
C         14.63640      -16.08719       -7.48738
C         13.51657      -16.88754       -8.14486
O         13.75629      -18.00278       -8.58670
C         15.18717      -16.77882       -6.20526
C         14.09509      -16.95581       -5.11983
C         16.40150      -16.02555       -5.62926
C         13.49572      -15.66074       -4.55801
H         15.91323      -14.80870       -8.59422
H         14.23129      -15.10093       -7.17493
H         15.54491      -17.79523       -6.47651
H         14.52773      -17.51919       -4.26635
H         13.27295      -17.55842       -5.54674
H         17.23258      -15.99937       -6.36471
H         16.14383      -14.97892       -5.36803
H         16.77935      -16.54538       -4.72306
H         12.98282      -15.07300       -5.34427
H         12.74046      -15.91230       -3.78527
H         14.27260      -15.03685       -4.07236
N         12.24987      -16.39925       -8.23032
C         11.15541      -17.19801       -8.77810
C         10.01361      -16.38743       -9.38025
O          9.05369      -17.00239       -9.81650
C         10.62577      -18.14965       -7.69057
O         10.05696      -17.43604       -6.62569
H         12.05382      -15.50261       -7.76152
H         11.54036      -17.82469       -9.61246
H         11.43832      -18.81305       -7.32657
H          9.85247      -18.82480       -8.11509
H         10.80922      -17.07815       -6.08748
N         10.02858      -15.02069       -9.45300
C          8.89646      -14.26609       -9.98045
C          8.65569      -14.56969      -11.45503
O          9.55857      -15.09412      -12.09464
C          9.16394      -12.77294       -9.79585
H         10.83707      -14.49294       -9.10846
H          8.00611      -14.55602       -9.38227
H          9.32822      -12.54301       -8.72223
H         10.06449      -12.46742      -10.37167
H          8.30763      -12.18604      -10.14158
N          7.46708      -14.33442      -12.09042
C          6.23446      -13.87890      -11.45123
C          5.40714      -13.03969      -12.42504
O          5.16255      -13.52200      -13.52232
C          5.41288      -15.11130      -11.05573
H          7.39490      -14.66670      -13.06550
H          6.43880      -13.33657      -10.51345
H          5.98710      -15.74020      -10.34226
H          4.46894      -14.79810      -10.55940
H          5.16383      -15.72946      -11.94511
N          4.85832      -11.82271      -12.12090
C          4.97416      -11.14871      -10.83138
C          6.34550      -10.53640      -10.59885
O          6.60629      -10.12471       -9.47681
C          3.89950      -10.04255      -10.67967
C          4.07525       -8.86083      -11.65694
C          3.01847       -7.81899      -11.43628
O          1.83936       -8.09439      -11.59115
O          3.36913       -6.56859      -11.07921
H          4.24226      -11.40896      -12.83680
H          4.75727      -11.90156      -10.04133
H          3.94258       -9.64644       -9.64036
H          2.89627      -10.50093      -10.82399
H          4.01427       -9.20133      -12.71040
H          5.07032       -8.39152      -11.50177
N          7.24466      -10.37728      -11.61488
C          8.53575       -9.73992      -11.43973
H          9.33801      -10.43827      -11.75436
H          8.58439       -8.82979      -12.07284
H          8.72487       -9.44211      -10.38651
H          7.00677      -10.68636      -12.56744
Ca        15.04384      -21.24633       -9.45828
O         15.78424      -20.73396      -12.55687
H         16.77129      -20.77661      -12.49376
H         15.51499      -21.63519      -12.86616
O         14.27170      -18.06633      -11.52836
H         13.49569      -17.47860      -11.34751
H         14.07447      -18.47173      -12.40942
O         12.02416      -20.33889      -10.41949
H         11.97850      -21.29472      -10.66980
H         11.55201      -19.86885      -11.15216

Ca 1.0



