%chk=apoCaM-CA-Ng.loop1.water4.frame362.chk
%nprocshared=20
%mem=10GB
%nosave
#b3lyp/svp scf=(tight,noincore,xqc) Test 
#IOP(5/87=12) Density=Current Pop=(MK,readradii) iop(6/33=2) iop(6/42=6)

apoCaM-CA-Ng.loop1.water4.frame362 

   0  1 
C         48.57031      100.50441       25.61940
C         49.77947      100.62814       24.73499
O         50.77878      101.18531       25.16549
H         47.74052       99.97484       25.10313
H         48.83264       99.92866       26.53164
H         48.21292      101.51309       25.91140
N         49.76326      100.10695       23.47835
C         50.90931      100.14260       22.57402
C         51.17376      101.53260       21.99016
O         52.06380      101.62607       21.16544
C         50.67944       99.16749       21.38682
C         50.56865       97.72468       21.81176
O         51.38464       96.90904       21.41191
O         49.56147       97.31229       22.60435
H         48.90816       99.61819       23.17283
H         51.81808       99.78836       23.11034
H         51.54587       99.23422       20.69372
H         49.76765       99.45887       20.82068
N         50.45642      102.64775       22.30962
C         50.55349      103.88524       21.53240
C         51.19151      105.03134       22.29951
O         50.76722      105.27551       23.41993
C         49.14041      104.28281       21.06680
C         48.62080      103.31299       19.99612
C         47.18978      103.67240       19.57603
C         46.69941      102.85162       18.37142
N         47.37527      103.24238       17.13011
H         49.75036      102.61296       23.05727
H         51.14807      103.71722       20.63145
H         49.17070      105.29424       20.60532
H         48.45411      104.32689       21.94178
H         48.63250      102.26434       20.36690
H         49.31153      103.38495       19.13287
H         47.10980      104.75167       19.32218
H         46.52610      103.47116       20.44558
H         45.61141      103.04308       18.24478
H         46.83632      101.76394       18.56250
H         46.97844      102.69126       16.33578
H         47.21555      104.25928       16.94242
H         48.39974      103.05673       17.17510
N         52.15343      105.86269       21.76161
C         52.73562      105.80518       20.41015
C         51.66781      105.84377       19.30830
O         51.49567      104.86219       18.60144
C         53.75505      104.65387       20.24479
C         55.04715      104.88359       20.98440
O         55.22691      105.96718       21.76316
O         55.97097      104.10053       20.82980
H         52.46601      106.65179       22.34901
H         53.36165      106.70634       20.24119
H         54.05284      104.62455       19.18487
H         53.33236      103.67076       20.51254
N         50.94406      106.96402       19.03355
C         51.21693      108.23315       19.67937
C         50.44885      109.39892       19.09037
O         49.57512      109.19877       18.25876
H         50.25016      106.91181       18.27199
H         52.28653      108.46005       19.49064
H         51.02610      108.16505       20.77124
N         50.76443      110.68615       19.41417
C         51.83416      111.05766       20.33970
C         53.03586      111.57353       19.56921
O         52.95126      111.74904       18.36019
C         51.30228      112.03214       21.40829
C         50.71147      113.28761       20.82458
O         51.40283      114.05605       20.17590
O         49.40862      113.56925       21.02057
H         50.26645      111.44219       18.91784
H         52.20845      110.17232       20.88830
H         52.11225      112.30431       22.11750
H         50.51010      111.50557       21.98496
N         54.22894      111.76267       20.20427
C         55.43562      112.16804       19.49937
C         55.94328      111.13808       18.49637
O         56.87591      111.46382       17.77653
H         54.28808      111.61129       21.22271
H         56.25179      112.35331       20.23124
H         55.22536      113.12408       18.97330
N         55.40763      109.88366       18.39509
C         55.83520      108.88838       17.41183
C         54.65113      108.52060       16.53696
O         53.53578      108.45163       17.03606
C         56.42323      107.64436       18.10956
C         57.67082      108.02454       18.91720
O         56.78225      106.69706       17.13538
H         54.66011      109.59910       19.04361
H         56.63456      109.29353       16.75146
H         55.65015      107.21202       18.78689
H         56.92172      105.83437       17.60665
H         58.44569      108.46232       18.25084
H         57.41693      108.76543       19.70123
H         58.09771      107.12555       19.40635
N         54.82706      108.27043       15.20747
C         53.71079      108.06105       14.28831
C         53.33165      106.60080       14.10532
O         52.31285      106.36483       13.46888
C         53.92777      108.82559       12.94261
C         55.20893      108.45595       12.13912
C         53.94584      110.34007       13.21043
C         55.32086      106.99081       11.72838
H         55.78693      108.26142       14.83611
H         52.79189      108.49167       14.74776
H         53.04631      108.62537       12.29327
H         56.12648      108.73461       12.69831
H         55.20532      109.05419       11.20157
H         54.02060      110.90156       12.25465
H         53.00906      110.65553       13.71697
H         54.80921      110.61887       13.85221
H         54.42331      106.67400       11.15680
H         56.21798      106.85595       11.08789
H         55.46174      106.34549       12.61373
N         54.05271      105.57245       14.64229
C         53.61605      104.17722       14.55395
C         53.46844      103.58065       15.93625
O         53.99707      104.13647       16.88586
C         54.58628      103.32845       13.69782
C         56.01959      103.30074       14.25349
O         54.60135      103.83363       12.38879
H         54.92517      105.78150       15.14880
H         52.61440      104.12254       14.07408
H         54.19047      102.28502       13.68301
H         54.92749      103.10306       11.80063
H         56.46727      104.31588       14.25712
H         56.03804      102.89596       15.28576
H         56.65412      102.64722       13.61890
N         52.75387      102.43461       16.12251
C         52.64332      101.78189       17.42688
C         53.98797      101.18875       17.83311
O         54.93229      101.25914       17.05845
C         51.52071      100.70477       17.42249
C         51.81938       99.49609       16.52409
O         50.31658      101.30534       17.02121
H         52.25942      102.03567       15.31080
H         52.33734      102.53933       18.17834
H         51.40265      100.33372       18.46553
H         49.57865      100.71023       17.31792
H         52.74502       98.98273       16.85562
H         50.98383       98.76747       16.59716
H         51.92917       99.79414       15.46255
N         54.12877      100.53879       19.02151
C         55.33769       99.83263       19.40946
C         55.88428      100.37765       20.71802
O         57.02462      100.82038       20.72595
C         55.00241       98.33287       19.45194
C         56.24671       97.43802       19.47298
C         55.84154       95.97594       19.23836
C         57.06564       95.07140       19.06157
N         56.65533       93.70240       18.74865
H         53.32047      100.46203       19.64130
H         56.11718       99.96458       18.62619
H         54.47170       98.10823       18.49947
H         54.30965       98.09309       20.28866
H         56.80368       97.55348       20.42777
H         56.90841       97.74564       18.63299
H         55.24333       95.91717       18.30153
H         55.21321       95.61645       20.08229
H         57.67820       95.07888       19.98930
H         57.68872       95.45772       18.22334
H         57.50645       93.11065       18.61429
H         56.08355       93.30918       19.53071
H         56.09634       93.68871       17.86375
N         55.12277      100.41019       21.85448
C         55.59609      100.96160       23.12294
C         55.49623       99.91213       24.20603
O         54.39892       99.44795       24.48559
C         54.76484      102.21029       23.49059
C         55.17312      102.94586       24.78620
C         56.60803      103.41456       24.80859
O         57.51741      102.60331       24.86531
O         56.90847      104.72911       24.81126
H         54.15684      100.05236       21.81639
H         56.65147      101.28272       23.01661
H         53.69172      101.93311       23.57446
H         54.84710      102.92626       22.66085
H         54.99250      102.30219       25.67292
H         54.50763      103.83089       24.87628
N         56.61319       99.49971       24.86796
C         56.59387       98.51803       25.93247
H         57.00100       98.97578       26.85835
H         55.57051       98.14569       26.14832
H         57.23013       97.65511       25.64676
H         57.52873       99.89994       24.61427
Ca        55.36287      106.36879       24.61678
O         57.48324      108.76591       22.36187
H         57.43369      109.74360       22.21357
H         58.38413      108.51230       22.03770
O         55.69708      106.92450       27.51732
H         56.12948      107.69200       27.06467
H         56.39833      106.22586       27.54417
O         58.49529      105.65206       22.30397
H         58.17334      105.71515       21.37045
H         59.21189      104.96999       22.27226
O         58.69360      107.76047       24.93925
H         59.62847      107.45993       24.81202
H         58.67995      108.15646       25.84653

Ca 1.0



