%chk=apoCaM-CA-Ng.loop1.water3.frame1066.chk
%nprocshared=20
%mem=10GB
%nosave
#b3lyp/svp scf=(tight,noincore,xqc) Test 
#IOP(5/87=12) Density=Current Pop=(MK,readradii) iop(6/33=2) iop(6/42=6)

apoCaM-CA-Ng.loop1.water3.frame1066 

   0  1 
C          9.12936       60.23831       37.34351
C         10.02568       59.06246       37.59717
O         10.53039       58.94157       38.70494
H          8.29449       60.22817       38.07455
H          9.70608       61.18032       37.46208
H          8.70409       60.21120       36.31855
N         10.30446       58.17304       36.59935
C         11.18687       57.02214       36.78109
C         12.57229       57.32010       36.23162
O         13.12517       56.53408       35.47407
C         10.53991       55.74165       36.19366
C         10.28992       55.77553       34.69849
O          9.76456       54.81513       34.15977
O         10.64377       56.83400       33.94158
H          9.91040       58.35773       35.66673
H         11.34355       56.84722       37.86859
H          9.56751       55.57356       36.70449
H         11.19642       54.87107       36.41113
N         13.19631       58.47304       36.59834
C         14.53716       58.83968       36.16511
C         15.56726       57.96356       36.86805
O         16.27713       57.26693       36.15658
C         14.76027       60.36585       36.32899
C         13.83003       61.12415       35.36360
C         13.72663       62.61320       35.69494
C         12.83810       63.31915       34.66061
N         12.58484       64.70677       35.04061
H         12.67895       59.13851       37.18977
H         14.62650       58.65591       35.06905
H         15.81137       60.64305       36.09658
H         14.55351       60.70219       37.35809
H         12.79678       60.71881       35.42669
H         14.19848       60.97043       34.32501
H         14.73100       63.08757       35.71422
H         13.26433       62.70817       36.70335
H         11.86193       62.79047       34.57608
H         13.33935       63.28636       33.66708
H         12.06868       64.73448       35.95037
H         13.48482       65.23136       35.12599
H         11.99193       65.15669       34.30613
N         15.72942       57.86858       38.22427
C         14.99009       58.60206       39.24826
C         14.12649       57.67721       40.07922
O         14.12698       56.47409       39.86310
C         15.96934       59.45682       40.08162
C         17.07591       58.65512       40.70313
O         16.80359       57.71124       41.62201
O         18.23190       58.86218       40.37130
H         16.44365       57.20310       38.55957
H         14.26207       59.28561       38.80609
H         15.43491       60.01218       40.88002
H         16.42288       60.20858       39.39845
N         13.26451       58.20833       40.98894
C         12.27947       57.41198       41.69272
C         12.86515       56.51264       42.75373
O         14.05884       56.55004       43.00868
H         13.23409       59.23142       41.11684
H         11.68979       56.82483       40.95598
H         11.57933       58.09859       42.21795
N         12.01001       55.73239       43.47246
C         12.36957       54.99331       44.69125
C         11.11115       54.79442       45.55891
O         10.01346       55.01023       45.06146
C         13.02305       53.62171       44.36885
C         14.28582       53.70942       43.55044
O         14.33327       53.13763       42.47304
O         15.36352       54.39486       43.99675
H         11.01886       55.81698       43.20216
H         13.05782       55.63715       45.27372
H         12.27644       52.99496       43.82852
H         13.28166       53.09036       45.29952
N         11.12437       54.42563       46.87334
C         12.27466       54.16908       47.72237
C         13.13656       55.38478       47.92329
O         12.59875       56.43524       48.24772
H         10.20496       54.34160       47.33770
H         12.85159       53.29180       47.38223
H         11.88436       53.91282       48.73122
N         14.49532       55.30632       47.79933
C         15.36679       56.42730       48.14556
C         15.74042       57.24242       46.92623
O         15.53629       56.79894       45.80591
C         16.60381       55.97360       48.96884
C         17.60130       55.13606       48.16156
O         16.19030       55.22984       50.08516
H         14.91563       54.40460       47.53072
H         14.79408       57.11602       48.80491
H         17.17232       56.87217       49.30784
H         15.92948       55.88241       50.78587
H         18.45643       54.84058       48.80609
H         17.14278       54.20924       47.76188
H         18.00136       55.74264       47.32492
N         16.23518       58.50080       47.10442
C         16.59011       59.43984       46.04610
C         17.85788       59.00167       45.34483
O         17.90428       57.91948       44.77634
C         15.42530       59.73848       45.04940
C         14.15726       60.16155       45.83711
C         15.86826       60.83997       44.06008
C         12.96982       60.55957       44.95849
H         16.33025       58.84521       48.07228
H         16.81103       60.40793       46.54919
H         15.18437       58.83374       44.45076
H         14.39344       61.01589       46.50777
H         13.83093       59.30591       46.46696
H         16.76819       60.52525       43.49131
H         15.08604       61.04379       43.30248
H         16.10266       61.78066       44.60336
H         12.09414       60.77723       45.60558
H         13.19086       61.48541       44.38837
H         12.70622       59.74086       44.25676
N         18.92773       59.84834       45.31620
C         20.16649       59.53128       44.62102
C         20.99437       58.47893       45.35131
O         22.01373       58.07003       44.81333
C         21.01261       60.81584       44.38853
C         21.63820       61.36734       45.67783
O         20.21932       61.82125       43.80850
H         18.82295       60.78091       45.74177
H         19.88565       59.16657       43.61798
H         21.85888       60.58227       43.70212
H         19.92259       61.48801       42.92200
H         22.34604       60.63105       46.11473
H         22.21382       62.28848       45.44817
H         20.86511       61.61094       46.43446
N         20.66828       58.06258       46.61255
C         21.51867       57.18446       47.40944
C         21.65675       55.83009       46.73956
O         20.71414       55.05396       46.74288
C         20.96267       57.09146       48.86055
C         21.66756       56.04831       49.72873
O         21.09309       58.34091       49.49441
H         19.81901       58.43802       47.05415
H         22.52736       57.65110       47.47193
H         19.89056       56.79165       48.83218
H         20.35078       58.92056       49.18417
H         22.75121       56.26885       49.80981
H         21.21771       56.05642       50.74565
H         21.52610       55.02894       49.31218
N         22.82440       55.50742       46.10976
C         23.08094       54.25204       45.41933
C         22.02915       53.98829       44.36097
O         21.28801       53.02048       44.46970
C         23.24136       53.08724       46.41953
C         23.79881       51.83940       45.70323
C         24.08583       50.69773       46.67986
C         24.66885       49.45533       45.97999
N         25.97206       49.71727       45.36132
H         23.57919       56.21007       46.08404
H         24.06574       54.34736       44.90760
H         22.28094       52.86213       46.93245
H         23.98370       53.39639       47.18741
H         24.74141       52.13597       45.19970
H         23.09169       51.47197       44.93057
H         23.13327       50.40725       47.17427
H         24.79650       51.04331       47.46119
H         23.95761       49.08106       45.21020
H         24.79301       48.65985       46.74673
H         25.88065       50.37469       44.55491
H         26.63689       50.10774       46.06803
H         26.36068       48.81904       44.99431
N         21.92893       54.80644       43.28071
C         20.96510       54.57337       42.21772
C         20.01538       55.77827       42.11054
O         18.92877       55.55513       41.25676
C         21.69105       54.12845       40.92497
C         22.36337       52.75835       41.14973
C         23.07974       52.26198       39.92892
O         22.46871       52.06642       38.89072
O         24.39896       51.99490       39.98615
H         22.58448       55.59828       43.18933
H         20.28495       53.73348       42.47138
H         22.46901       54.84836       40.61339
H         20.95073       54.02975       40.10185
H         21.58989       52.01083       41.43038
H         23.09736       52.83082       41.98134
N         20.58205       57.13429       42.01043
C         21.44261       57.39648       40.85827
H         22.43228       56.92676       41.00263
H         20.96316       57.08020       39.90825
H         21.65189       58.48774       40.80421
H         19.77281       57.78830       41.95436
Ca        17.15746       54.98880       42.66976
O         18.11116       52.14522       43.01451
H         17.26552       51.84840       43.43514
H         17.89410       52.23634       42.05276
O         16.17538       54.40891       40.00760
H         15.51009       54.21025       40.70899
H         16.38427       55.36546       40.14705
O         18.47517       54.73027       45.11596
H         19.08285       55.44717       44.80468
H         18.92051       53.88997       44.84845

Ca 1.0



