%chk=apoCaM-CA-Ng.loop3.water4.frame317.chk
%nprocshared=20
%mem=10GB
%nosave
#b3lyp/svp scf=(tight,noincore,xqc) Test 
#IOP(5/87=12) Density=Current Pop=(MK,readradii) iop(6/33=2) iop(6/42=6)

apoCaM-CA-Ng.loop3.water4.frame317 

   0  1 
C         69.19520       81.35655       50.73471
C         70.45692       80.62483       50.38948
O         70.39101       79.49001       49.94312
H         68.30206       80.73174       50.52323
H         69.20269       81.60562       51.81742
H         69.13056       82.29478       50.14593
N         71.66111       81.22262       50.60007
C         72.95075       80.58013       50.37445
C         73.08524       79.36956       51.28568
O         73.38812       78.27415       50.83149
C         73.18507       80.25800       48.87786
C         73.15653       81.47822       47.99118
O         72.94590       82.71011       48.49672
O         73.33705       81.35031       46.79108
H         71.67066       82.18090       50.98323
H         73.74746       81.29319       50.68598
H         72.42218       79.53994       48.51391
H         74.18443       79.78417       48.76462
N         72.87527       79.53160       52.62287
C         73.05474       78.47718       53.61947
C         72.06961       77.31753       53.48898
O         72.20795       76.37003       54.25170
C         72.92107       79.06122       55.05085
C         73.88043       80.22240       55.38488
C         75.36287       79.82984       55.28947
C         76.31293       80.99944       55.59814
N         76.17229       81.49486       56.96841
H         72.61753       80.47610       52.94215
H         74.07556       78.05797       53.49755
H         73.09282       78.25276       55.79535
H         71.88004       79.43150       55.18569
H         73.64674       80.53906       56.42230
H         73.69132       81.09235       54.72405
H         75.59031       79.50427       54.25341
H         75.57192       78.98376       55.97933
H         76.13483       81.83010       54.87911
H         77.35554       80.64001       55.45217
H         76.90281       82.22270       57.13989
H         75.23783       81.93968       57.10875
H         76.30599       80.71377       57.65066
N         71.04813       77.30684       52.58312
C         70.09285       76.20200       52.48592
C         70.80051       74.89649       52.12685
O         71.96779       74.92435       51.75799
C         69.01749       76.56575       51.44151
C         67.90411       75.56568       51.31398
O         67.70107       75.00257       50.25035
O         67.10273       75.31077       52.36496
H         70.91922       78.11837       51.96821
H         69.61229       76.08922       53.48279
H         69.53198       76.69540       50.47188
H         68.55711       77.54054       51.71210
N         70.16752       73.69696       52.27643
C         70.83735       72.43034       52.03024
C         71.14303       72.17110       50.56893
O         71.86954       71.22562       50.29960
H         69.21092       73.67370       52.65516
H         70.20534       71.58982       52.39146
H         71.77930       72.41715       52.62048
N         70.57789       72.91007       49.56938
C         70.80921       72.66069       48.14835
C         71.28287       73.92887       47.43376
O         71.39993       73.91016       46.21683
C         69.50197       72.15264       47.49541
C         68.93304       70.94107       48.20350
N         68.87328       69.73569       47.59165
O         68.50974       71.05360       49.34444
H         69.90230       73.64832       49.81078
H         71.57492       71.86674       48.00109
H         69.72655       71.89265       46.43694
H         68.72800       72.95032       47.49331
H         69.22830       69.60613       46.63379
H         68.47990       68.92138       48.08758
N         71.56598       75.07203       48.12147
C         71.87567       76.35143       47.50533
C         70.64918       76.97062       46.86247
O         70.74362       77.54131       45.78716
H         71.54386       75.06831       49.14988
H         72.74881       76.28881       46.82027
H         72.15209       77.04596       48.32841
N         69.45687       76.89791       47.51484
C         68.20801       77.53664       47.11895
C         67.23498       76.47804       46.66112
O         67.14470       75.42943       47.28436
C         67.63580       78.27107       48.34737
C         66.23042       78.78042       48.14336
C         65.94889       79.78994       47.21050
C         65.18053       78.22630       48.89673
C         64.63447       80.23909       47.03834
C         63.87128       78.67127       48.71899
C         63.59288       79.68137       47.78969
O         62.33070       80.11895       47.60990
H         69.42055       76.32072       48.36317
H         68.35918       78.26568       46.29278
H         68.29922       79.11042       48.63039
H         67.62214       77.55397       49.19252
H         66.74415       80.22907       46.62159
H         65.37234       77.44016       49.61746
H         64.42427       81.01973       46.31887
H         63.07513       78.22768       49.30329
H         61.58541       79.74993       48.10574
N         66.44073       76.70981       45.57556
C         65.57462       75.67631       45.03396
C         66.49282       74.60717       44.48361
O         66.39579       73.46848       44.90726
C         64.59759       76.21444       43.94302
C         63.70607       77.39155       44.43862
C         63.69642       75.07792       43.40799
C         62.73841       77.05448       45.58023
H         66.48598       77.62676       45.10918
H         64.93990       75.26664       45.84803
H         65.20221       76.60339       43.09469
H         63.09975       77.75840       43.58178
H         64.34320       78.23745       44.76671
H         63.02383       75.46102       42.61146
H         64.28641       74.25060       42.97950
H         63.08169       74.63083       44.21587
H         62.01408       76.26826       45.28591
H         63.28854       76.73392       46.48500
H         62.14829       77.95791       45.83860
N         67.48124       74.91978       43.59606
C         68.42341       73.91354       43.12512
C         67.75363       72.90217       42.20867
O         68.33080       71.84679       41.99903
C         69.62441       74.55598       42.41908
O         70.26793       75.46411       43.27310
H         67.60065       75.90398       43.30728
H         68.81463       73.37798       44.02156
H         69.28362       75.10375       41.51562
H         70.34690       73.77725       42.08284
H         70.80001       74.92453       43.91351
N         66.52953       73.15078       41.64518
C         65.78009       72.19741       40.82739
C         65.33892       70.96729       41.61890
O         64.77485       70.05978       41.01450
C         66.56924       71.83471       39.56189
H         66.09380       74.06936       41.78581
H         64.84825       72.69582       40.47756
H         66.82454       72.76270       39.00591
H         67.50312       71.28508       39.78918
H         65.94855       71.19801       38.89634
N         65.50840       70.87799       42.96959
C         65.12250       69.73994       43.78723
C         64.06416       70.13316       44.80414
O         63.66177       71.28930       44.84548
C         66.37234       69.22047       44.50910
H         65.92842       71.66330       43.47600
H         64.70663       68.92411       43.15524
H         66.79096       70.01296       45.16910
H         66.14131       68.33117       45.13026
H         67.14676       68.93513       43.76642
N         63.53737       69.19285       45.63477
C         62.52456       69.42440       46.66147
C         61.33384       70.18689       46.10185
O         60.96190       71.22024       46.64166
C         63.10534       70.07208       47.95464
C         64.32979       69.30556       48.48872
C         64.61929       69.57576       49.95036
O         64.51418       68.65030       50.73918
O         65.00107       70.77474       50.44011
H         63.84144       68.21395       45.50522
H         62.15594       68.42252       46.97765
H         62.29297       70.02259       48.71414
H         63.36578       71.13721       47.81899
H         65.22174       69.51205       47.85770
H         64.10568       68.21899       48.41103
N         60.69746       69.73386       44.98803
C         59.58229       70.44645       44.40249
H         58.74351       70.50231       45.12814
H         59.89610       71.47482       44.12048
H         59.23317       69.92048       43.48905
H         61.02429       68.86952       44.53115
Ca        65.53896       72.74423       49.49506
O         63.72274       74.33330       51.51290
H         63.91101       73.90987       52.38754
H         63.15840       73.67475       51.03455
O         63.63571       75.08383       48.51873
H         62.99948       74.59052       47.94293
H         63.05867       75.65222       49.08683
O         64.94392       72.88446       46.94762
H         64.09149       73.01995       46.46646
H         65.25755       71.97748       46.70145
O         67.06682       72.18596       52.07492
H         67.36571       71.24534       51.99904
H         67.00844       72.35163       53.04902

Ca 1.0



