%chk=apoCaM-CA-Ng.loop4.water6.frame517.chk
%nprocshared=20
%mem=10GB
%nosave
#b3lyp/svp scf=(tight,noincore,xqc) Test 
#IOP(5/87=12) Density=Current Pop=(MK,readradii) iop(6/33=2) iop(6/42=6)

apoCaM-CA-Ng.loop4.water6.frame517 

   -3  1 
C         91.43857       65.51571       54.00861
C         91.97124       64.16165       53.65473
O         91.62948       63.19847       54.32564
H         90.76130       65.45317       54.88777
H         92.27903       66.19880       54.24793
H         90.86431       65.92087       53.14882
N         92.80445       64.01311       52.57962
C         93.37039       62.73809       52.12578
C         92.31260       61.76980       51.60132
O         92.67492       60.66653       51.21672
C         94.20698       62.08793       53.25553
C         95.20134       63.07633       53.78877
O         96.07952       63.51927       53.06641
O         95.06490       63.54674       55.04231
H         93.07108       64.85923       52.05327
H         94.05733       62.94977       51.27578
H         94.73589       61.18066       52.89178
H         93.54287       61.76602       54.08388
N         90.98773       62.10062       51.56989
C         89.92953       61.15804       51.22192
C         89.99893       60.73407       49.75562
O         90.69281       61.38903       48.98973
C         88.52366       61.74821       51.59940
C         88.18521       63.03225       50.78844
C         88.45493       61.96789       53.12560
C         86.82822       63.64073       51.14304
H         90.70941       63.03510       51.87212
H         90.11392       60.25931       51.84882
H         87.73262       61.01201       51.36369
H         88.16858       62.77222       49.70807
H         88.94526       63.82541       50.93342
H         87.43247       62.25177       53.44402
H         88.70517       61.02338       53.65538
H         89.15455       62.75639       53.46420
H         86.82454       64.01374       52.18831
H         86.63167       64.51131       50.48256
H         86.01762       62.89472       51.00941
N         89.34320       59.63718       49.26373
C         88.55696       58.70286       50.06968
C         89.20750       57.33712       50.16745
O         88.94908       56.65520       51.14968
C         87.09447       58.60481       49.58683
C         86.93534       57.96402       48.23264
O         87.41609       58.47849       47.23639
O         86.23042       56.82246       48.11282
H         89.45362       59.44014       48.25841
H         88.50356       59.04816       51.11325
H         86.64015       59.61913       49.56820
H         86.52689       57.99373       50.32114
N         90.05873       56.85964       49.21291
C         90.68283       55.55370       49.31026
C         89.64046       54.45843       49.34708
O         88.86857       54.32896       48.40758
H         90.28361       57.42526       48.38388
H         91.31994       55.53003       50.22199
H         91.34576       55.38967       48.43387
N         89.57301       53.62749       50.42313
C         88.61399       52.53284       50.56897
C         87.15107       52.96884       50.75432
O         86.33086       52.08994       50.98459
C         89.05649       51.59187       51.72746
C         89.18077       52.20313       53.10237
O         89.00724       53.39392       53.29390
O         89.53150       51.41749       54.13769
H         90.28710       53.75170       51.15653
H         88.65716       51.89890       49.65565
H         90.05111       51.16732       51.47100
H         88.34268       50.74220       51.78895
N         86.71957       54.26364       50.65070
C         85.33022       54.64200       50.88643
C         84.95576       54.59582       52.35884
O         83.78904       54.77415       52.67595
H         87.36512       55.00910       50.37961
H         84.66792       53.98232       50.28496
H         85.16179       55.68751       50.54839
N         85.91116       54.42660       53.31550
C         85.69600       54.41633       54.75335
C         85.12847       55.73211       55.24346
O         84.20519       55.74509       56.04572
C         84.90801       53.17409       55.21562
C         85.68877       51.88357       54.90708
C         85.00211       50.63578       55.40486
N         85.60536       49.43482       55.25119
O         83.91112       50.69695       55.95377
H         86.88776       54.34992       53.02284
H         86.70013       54.35480       55.23274
H         83.90558       53.14982       54.73686
H         84.77250       53.22980       56.31862
H         86.68166       51.94406       55.40484
H         85.84794       51.78880       53.81176
H         86.52929       49.36568       54.79930
H         85.15349       48.57341       55.59198
N         85.70740       56.89321       54.83014
C         85.41195       58.19935       55.40756
C         86.67822       58.83057       55.99056
O         86.56578       59.88980       56.59391
C         84.72631       59.13371       54.37390
C         85.58441       59.37329       53.12273
C         83.35329       58.57646       53.97093
H         86.42259       56.83858       54.09047
H         84.70933       58.08660       56.26316
H         84.54872       60.11754       54.86366
H         85.07783       60.09352       52.44523
H         86.56836       59.79682       53.40304
H         85.74607       58.42906       52.56441
H         83.45456       57.59294       53.46525
H         82.71304       58.45052       54.87071
H         82.83953       59.27991       53.28177
N         87.91298       58.25112       55.86412
C         89.11770       58.81968       56.45264
C         89.02846       58.78232       57.96242
O         88.44992       57.86288       58.52075
C         90.38964       58.07261       55.99933
C         90.67657       58.30068       54.53223
N         91.81610       58.92142       54.14472
O         89.87775       57.92786       53.68671
H         88.02476       57.37291       55.34449
H         89.22992       59.87597       56.11786
H         90.30105       56.98412       56.20976
H         91.25240       58.45878       56.58553
H         92.50653       59.24960       54.83587
H         92.01071       59.07762       53.14622
N         89.63114       59.76794       58.67899
C         89.61645       59.83937       60.13841
C         89.66959       61.29254       60.58220
O         89.87765       62.17026       59.76173
C         90.85866       59.10934       60.69665
C         90.81814       57.62054       60.45863
C         91.71005       57.00922       59.56083
C         89.89085       56.82575       61.15252
C         91.66638       55.62617       59.35523
C         89.85699       55.44253       60.95443
C         90.74055       54.83779       60.05469
O         90.69166       53.50257       59.87276
H         90.15129       60.48284       58.15045
H         88.66901       59.41034       60.53207
H         90.96433       59.26856       61.79179
H         91.75603       59.55554       60.21158
H         92.43238       57.60135       59.01300
H         89.20306       57.27717       61.85670
H         92.35367       55.16827       58.65490
H         89.14379       54.84011       61.50294
H         91.28360       53.04388       59.25966
N         89.48898       61.62042       61.89398
C         89.70049       62.98183       62.37200
C         91.20111       63.16751       62.53953
O         91.75687       62.45588       63.36533
C         89.01279       63.20009       63.74150
C         87.48849       63.02653       63.67609
C         86.87466       63.24958       65.02992
O         86.05918       64.14230       65.19672
O         87.21606       62.45886       66.06614
H         89.25103       60.87754       62.56726
H         89.24990       63.70048       61.65618
H         89.23446       64.23224       64.09296
H         89.42479       62.48188       64.48546
H         87.22916       61.99956       63.34205
H         87.06569       63.75238       62.94736
N         91.97956       64.02336       61.81186
C         91.56274       64.89620       60.72282
C         90.56852       65.97346       61.13116
O         90.28491       66.14084       62.30946
C         92.79487       65.56123       60.03288
C         93.61903       66.58878       60.85918
C         94.82159       66.04939       61.60720
O         95.94121       66.39888       61.26493
O         94.69944       65.25358       62.68291
H         92.98013       63.96777       62.00934
H         91.07052       64.26515       59.95819
H         92.38248       66.12526       59.17156
H         93.47132       64.80378       59.58259
H         92.96809       67.19230       61.52528
H         94.04442       67.29773       60.11897
N         90.00097       66.75571       60.16715
C         89.07857       67.82817       60.46178
H         88.17917       67.43006       60.97474
H         89.57586       68.58927       61.09886
H         88.76062       68.31828       59.51496
H         90.22910       66.58969       59.17505
Ca        96.22138       65.38145       55.65498
O         94.62012       67.20602       57.52466
H         93.99593       66.46679       57.31410
H         94.03403       67.95909       57.78856
O         98.78126       66.67484       55.25450
H         99.34295       67.39998       55.62566
H         99.36210       66.21466       54.59809
O         96.30393       64.42590       58.38654
H         95.73641       63.69249       58.03959
H         95.91975       64.63864       59.27156
O         96.07611       68.70138       55.15634
H         96.82809       68.89802       55.76972
H         96.31841       69.15822       54.31197
O         96.51100       66.66240       52.83378
H         97.05385       66.64908       52.00619
H         95.70807       66.12618       52.61483
O         98.34392       63.34139       56.10291
H         99.11944       63.95620       56.08107
H         98.26915       63.07164       57.05236

Ca 1.0



