%chk=apoCaM-CA-Ng.loop3.water2.frame982.chk
%nprocshared=20
%mem=10GB
%nosave
#b3lyp/svp scf=(tight,noincore,xqc) Test 
#IOP(5/87=12) Density=Current Pop=(MK,readradii) iop(6/33=2) iop(6/42=6)

apoCaM-CA-Ng.loop3.water2.frame982 

   0  1 
C         54.22011      128.16896       84.12996
C         54.71273      129.53683       84.50895
O         54.04965      130.52189       84.21955
H         53.24643      128.22617       83.59935
H         54.96184      127.66844       83.47312
H         54.08582      127.55681       85.04791
N         55.87784      129.66008       85.19829
C         56.40489      130.93426       85.68018
C         56.83948      131.81183       84.51622
O         57.44362      131.27663       83.59536
C         57.61309      130.66433       86.61086
C         57.96947      131.81666       87.51454
O         58.99722      131.68670       88.37316
O         57.30401      132.83816       87.53433
H         56.38442      128.79143       85.43350
H         55.61962      131.42199       86.29247
H         58.49237      130.35291       86.00619
H         57.36893      129.82835       87.29389
N         56.65485      133.16937       84.52197
C         57.14798      134.03040       83.44110
C         58.38201      134.84370       83.83983
O         58.93032      135.52406       82.98570
C         56.01324      134.93449       82.88030
C         55.79800      136.31470       83.55268
C         55.39830      136.32767       85.03183
C         55.32339      137.78699       85.52686
N         54.96804      137.86741       86.94115
H         56.19952      133.59717       85.33968
H         57.47049      133.37957       82.59977
H         55.06563      134.35605       82.82037
H         56.29786      135.19261       81.83641
H         55.01044      136.85063       82.97858
H         56.73551      136.90088       83.44215
H         56.16600      135.80381       85.62403
H         54.41988      135.81853       85.16863
H         54.57080      138.34918       84.93133
H         56.31454      138.27379       85.38197
H         55.67735      137.36305       87.51850
H         54.95890      138.87139       87.23449
H         54.01630      137.46353       87.09301
N         58.84627      134.84853       85.12461
C         59.95260      135.67829       85.60262
C         61.04082      134.86760       86.32096
O         62.04759      135.46037       86.68780
C         59.40208      136.79475       86.52972
C         58.65700      136.24446       87.71685
O         57.62821      135.61007       87.57177
O         59.15636      136.36960       88.94869
H         58.35613      134.27831       85.81519
H         60.44491      136.18461       84.74381
H         58.72055      137.46177       85.96050
H         60.25877      137.40989       86.88336
N         60.93313      133.52581       86.54873
C         61.98006      132.71874       87.16189
C         62.28495      132.98657       88.63020
O         63.15398      132.29016       89.13604
H         60.10593      133.01580       86.21406
H         62.91415      132.83532       86.57093
H         61.67621      131.65042       87.09745
N         61.64769      133.93132       89.38835
C         61.96458      134.15081       90.80557
C         60.71523      133.95286       91.69296
O         59.83142      132.99819       91.19724
C         62.48578      135.58729       91.00469
C         63.72360      135.86020       90.18654
N         63.72940      136.83028       89.24108
O         64.73409      135.20233       90.38406
H         60.92281      134.51779       88.95829
H         62.74243      133.43344       91.14596
H         62.72788      135.75915       92.07595
H         61.68202      136.30255       90.71900
H         62.88952      137.39869       89.05722
H         64.57868      137.01545       88.68684
N         61.03562      133.73610       93.10834
C         59.84466      133.75752       93.97331
C         59.02132      132.48417       93.87664
O         59.54972      131.41423       94.14238
H         61.57682      132.85055       93.23974
H         59.23096      134.65835       93.74683
H         60.18363      133.85629       95.02623
N         57.70440      132.53975       93.52609
C         56.81626      131.37828       93.46194
C         56.27993      131.20152       92.03925
O         56.93681      131.66138       91.11660
C         55.68297      131.55967       94.50158
C         56.19859      131.77171       95.90319
C         55.84799      132.93040       96.61515
C         57.01387      130.80711       96.52055
C         56.30557      133.12149       97.92138
C         57.47625      131.00387       97.82427
C         57.12326      132.15848       98.52996
O         57.57102      132.32980       99.78975
H         57.29719      133.46189       93.32302
H         57.35954      130.44379       93.71691
H         55.04804      130.65334       94.54899
H         55.04431      132.41645       94.19293
H         55.21332      133.68310       96.16388
H         57.29238      129.90231       95.99575
H         56.02130      134.01684       98.45936
H         58.10616      130.25495       98.28743
H         57.34470      133.11153      100.31347
N         55.11436      130.51952       91.78616
C         54.52543      130.26992       90.46827
C         54.16591      131.57014       89.75441
O         55.01830      132.43242       89.60420
C         55.41887      129.35362       89.58641
C         54.71662      128.95765       88.25208
C         55.86173      128.09137       90.34809
C         53.45179      128.09616       88.38685
H         54.58586      130.12316       92.57205
H         53.58739      129.70271       90.64358
H         56.33965      129.91495       89.32877
H         55.43542      128.38315       87.63205
H         54.44724      129.87512       87.69044
H         54.98839      127.50014       90.69286
H         56.49642      127.45455       89.69539
H         56.46449      128.36301       91.23909
H         53.67941      127.12200       88.86506
H         52.65642      128.60766       88.96199
H         53.04416      127.88507       87.37606
N         52.92721      131.73953       89.20788
C         52.55045      132.94249       88.46905
C         51.21040      133.52633       88.89973
O         50.87401      134.59538       88.40627
C         52.53155      132.62559       86.96839
O         51.59432      131.61789       86.69607
H         52.26937      130.94829       89.23715
H         53.31120      133.73265       88.62406
H         53.55362      132.29423       86.68149
H         52.28508      133.53545       86.37879
H         51.91834      131.13772       85.89042
N         50.36257      132.88336       89.75671
C         49.04044      133.41245       90.07682
C         49.13539      134.65053       90.95885
O         50.17257      134.84470       91.57809
C         48.22078      132.33732       90.79914
H         50.61970      131.96380       90.13825
H         48.53470      133.64692       89.11618
H         48.12562      131.44003       90.15088
H         48.71623      132.04257       91.74885
H         47.20715      132.69768       91.03684
N         48.11033      135.54434       91.10779
C         46.91010      135.58204       90.27624
C         45.78253      136.32607       90.98492
O         46.01796      137.45194       91.40339
C         47.23641      136.33870       88.98117
H         48.29171      136.35752       91.71800
H         46.59445      134.56624       89.98881
H         48.05082      135.83443       88.42216
H         46.33936      136.38141       88.32665
H         47.56450      137.37755       89.20457
N         44.50820      135.84405       91.11341
C         44.03825      134.55366       90.61591
C         44.58491      133.37465       91.40426
O         44.59352      132.28015       90.85627
C         42.48800      134.44292       90.52009
C         41.67043      134.70450       91.80642
C         41.46701      136.16957       92.08906
O         41.87452      136.70378       93.25577
O         40.91523      136.88041       91.26244
H         43.83190      136.48925       91.53215
H         44.39144      134.45079       89.56583
H         42.26781      133.40212       90.19241
H         42.10394      135.10626       89.71563
H         42.12629      134.18032       92.67335
H         40.65057      134.29036       91.65598
N         45.01017      133.49609       92.69388
C         45.51928      132.37669       93.46565
H         46.54244      132.61172       93.82432
H         44.85985      132.19714       94.34042
H         45.57101      131.43692       92.87450
H         44.95230      134.40890       93.16728
Ca        58.59726      134.62200       90.24481
O         55.58556      134.48732       91.88017
H         55.99268      135.26514       92.33847
H         54.76131      134.29655       92.39360
O         54.76804      135.88241       89.58768
H         54.26914      135.80665       88.73804
H         54.06199      135.90750       90.28082

Ca 1.0



