%chk=apoCaM-CA-Ng.loop4.water3.frame181.chk
%nprocshared=20
%mem=10GB
%nosave
#b3lyp/svp scf=(tight,noincore,xqc) Test 
#IOP(5/87=12) Density=Current Pop=(MK,readradii) iop(6/33=2) iop(6/42=6)

apoCaM-CA-Ng.loop4.water3.frame181 

   -3  1 
C         80.90239       44.87134       38.03558
C         79.63266       44.07874       38.07350
O         78.75190       44.36103       37.28066
H         81.75919       44.20316       37.81486
H         80.84705       45.65258       37.24468
H         81.05638       45.37193       39.01343
N         79.47387       43.05108       38.95800
C         78.25376       42.25516       39.06398
C         77.84145       41.62665       37.75053
O         76.87318       42.06528       37.15424
C         77.10593       42.94265       39.85763
C         76.88694       44.44018       39.75100
O         76.53635       45.11207       38.63183
O         77.01203       45.09710       40.77322
H         80.26692       42.80403       39.56923
H         78.46898       41.36917       39.70666
H         77.36051       42.77757       40.93157
H         76.15597       42.38818       39.69613
N         78.54426       40.55007       37.28194
C         78.25138       39.74229       36.09542
C         77.03890       38.82655       36.30342
O         77.23276       37.61802       36.28488
C         78.18865       40.58177       34.79306
C         78.03974       39.70201       33.52255
C         79.41502       41.50446       34.66218
C         79.17168       38.69911       33.26112
H         79.37713       40.26384       37.82092
H         79.12335       39.05981       35.98642
H         77.29366       41.23315       34.83976
H         77.99620       40.38145       32.64929
H         77.08305       39.13816       33.57222
H         80.35965       40.92335       34.64609
H         79.34201       42.10802       33.73239
H         79.46535       42.21487       35.51204
H         78.96688       38.15849       32.31296
H         80.14871       39.21163       33.15191
H         79.23873       37.94048       34.06655
N         75.77702       39.29773       36.53407
C         74.64825       38.41642       36.80779
C         74.24884       37.61963       35.56197
O         74.33761       36.40211       35.63393
C         73.49007       39.19590       37.47679
C         72.33382       38.29876       37.82252
O         72.51346       37.25098       38.64991
O         71.22460       38.52243       37.36492
H         75.60671       40.30450       36.57075
H         74.97062       37.69343       37.59361
H         73.14167       40.03999       36.86082
H         73.86821       39.64726       38.41994
N         73.81864       38.16406       34.38108
C         73.66036       39.59069       34.13117
C         73.18474       39.91821       32.72110
O         72.98150       39.00170       31.93786
H         73.60109       37.49849       33.62417
H         74.63619       40.08250       34.29874
H         72.89288       39.96606       34.80971
N         72.98602       41.19816       32.27122
C         73.16547       42.44750       33.00877
C         74.57095       42.57736       33.57358
O         74.71034       42.64320       34.78782
C         72.07074       42.64738       34.08880
C         70.68781       42.54014       33.51195
O         69.83483       41.60855       33.97919
O         70.32733       43.29898       32.62629
H         72.68428       41.30551       31.29048
H         73.02035       43.29392       32.29976
H         72.18507       43.65893       34.53694
H         72.16905       41.92623       34.91662
N         75.68756       42.66242       32.79568
C         75.73444       42.69398       31.34547
C         75.50928       41.35015       30.72210
O         76.13728       40.39030       31.13964
H         76.59117       42.77969       33.27665
H         76.77045       42.94903       31.05033
H         75.07971       43.49280       30.93626
N         74.69440       41.21659       29.64224
C         74.62132       39.96970       28.89245
C         75.82471       39.78630       27.95965
O         75.94151       38.71410       27.38516
C         73.22956       39.76261       28.24925
C         72.71294       40.87236       27.31914
C         73.60781       41.13203       26.14514
N         73.88099       40.15523       25.25200
O         74.08098       42.24610       25.99068
H         74.24468       42.06358       29.26878
H         74.70297       39.12518       29.61476
H         72.48788       39.67779       29.07432
H         73.22836       38.78875       27.71400
H         72.56866       41.80986       27.89567
H         71.71171       40.57418       26.94135
H         73.48286       39.21175       25.36063
H         74.49093       40.34515       24.44662
N         76.80553       40.73763       27.84173
C         78.08697       40.50436       27.16727
C         78.38143       41.50323       26.05169
O         79.47256       41.42091       25.49885
C         79.24555       40.50548       28.21578
C         79.10155       39.33489       29.19933
C         79.37011       41.83032       28.98948
H         76.69169       41.64014       28.31949
H         78.10333       39.50227       26.68499
H         80.20356       40.34216       27.67286
H         79.96592       39.31037       29.89718
H         78.17052       39.42169       29.79435
H         79.08257       38.37193       28.64539
H         78.47771       42.01690       29.61918
H         80.25232       41.79359       29.66363
H         79.50642       42.68282       28.29207
N         77.47855       42.43187       25.62258
C         77.76522       43.36566       24.53306
C         77.49539       44.82592       24.89120
O         77.80030       45.66729       24.05881
C         76.89650       43.00387       23.30576
C         77.18086       41.62448       22.76567
N         78.39889       41.31155       22.26682
O         76.29330       40.78631       22.75404
H         76.53672       42.43279       26.03304
H         78.83563       43.30509       24.23841
H         77.07359       43.72654       22.47965
H         75.82542       43.07214       23.59756
H         79.15712       42.00797       22.24657
H         78.57994       40.37059       21.88643
N         76.84715       45.20778       26.03610
C         76.33461       46.56552       26.21238
C         76.47014       47.08202       27.63427
O         76.15273       46.36716       28.57229
C         74.82904       46.56773       25.86328
C         74.58260       46.28145       24.39931
C         75.04387       47.17511       23.41570
C         73.88334       45.13137       24.00151
C         74.81614       46.91754       22.06143
C         73.66068       44.87220       22.64520
C         74.12483       45.76246       21.67129
O         73.89864       45.50072       20.36813
H         76.52767       44.49569       26.70415
H         76.82631       47.28564       25.52422
H         74.38650       47.56475       26.08303
H         74.31206       45.82075       26.50658
H         75.57632       48.07529       23.69581
H         73.51498       44.43222       24.73836
H         75.17654       47.61708       21.31750
H         73.12585       43.97797       22.35142
H         74.19870       46.09419       19.66469
N         76.77668       48.40206       27.82367
C         76.59196       49.17436       29.05497
C         77.41785       48.75469       30.26505
O         77.27674       49.40539       31.29189
C         75.08860       49.41280       29.37544
C         74.25055       48.19361       29.78252
C         72.85904       48.60829       30.16444
O         72.13466       49.15895       29.34988
O         72.39757       48.35968       31.40457
H         77.05111       48.95391       26.99644
H         76.95583       50.20389       28.83017
H         74.61395       49.88665       28.48668
H         75.03858       50.15206       30.20584
H         74.73150       47.68518       30.64564
H         74.14470       47.48917       28.93747
N         78.36719       47.77812       30.21156
C         79.28267       47.50294       31.31941
C         80.70190       47.93759       30.96176
O         81.57559       47.79838       31.80775
C         79.28873       45.99781       31.64629
C         77.96210       45.42159       32.16491
C         77.61245       45.73988       33.59809
O         76.57110       45.08633       34.15728
O         78.31325       46.46826       34.28314
H         78.51922       47.26739       29.33046
H         79.00211       48.07512       32.23035
H         80.07641       45.75963       32.39559
H         79.55317       45.46208       30.70763
H         78.10520       44.32434       32.15409
H         77.12180       45.67865       31.48532
N         81.02162       48.47661       29.74770
C         82.37276       48.87685       29.42084
H         83.05360       48.00164       29.48691
H         82.40918       49.27595       28.38454
H         82.71423       49.66927       30.11978
H         80.30638       48.61210       29.02034
Ca        76.24676       44.88382       36.39326
O         73.67913       46.10704       35.19742
H         73.90847       45.96182       34.24518
H         73.50806       47.07970       35.26683
O         73.54145       43.81997       37.92710
H         72.84522       44.03711       37.25728
H         73.23468       44.26446       38.75720
O         77.25696       47.75420       37.52626
H         77.82509       47.14489       36.99123
H         76.58708       48.09763       36.88316

Ca 1.0



