%chk=apoCaM-CA-Ng.loop4.water4.frame777.chk
%nprocshared=20
%mem=10GB
%nosave
#b3lyp/svp scf=(tight,noincore,xqc) Test 
#IOP(5/87=12) Density=Current Pop=(MK,readradii) iop(6/33=2) iop(6/42=6)

apoCaM-CA-Ng.loop4.water4.frame777 

   -3  1 
C        109.47500       77.27877        1.07521
C        110.51914       76.25254        0.74329
O        110.63913       75.85480       -0.40535
H        108.77844       76.87768        1.83858
H        109.96730       78.18269        1.49268
H        108.89420       77.56702        0.17491
N        111.32729       75.78600        1.73056
C        112.40708       74.82158        1.55212
C        113.47313       75.37688        0.61488
O        113.89528       74.68132       -0.30096
C        111.88660       73.44507        1.05891
C        110.63583       73.00347        1.76262
O        109.62525       72.78970        1.11115
O        110.59168       72.87828        3.09967
H        111.18134       76.14905        2.68617
H        112.86829       74.67909        2.55552
H        112.68919       72.68569        1.18344
H        111.64479       73.50434       -0.02548
N        113.91672       76.66089        0.74729
C        114.88540       77.23269       -0.19144
C        116.26474       76.60401        0.03254
O        116.45741       76.01959        1.09045
C        114.95125       78.79374       -0.07931
C        115.51093       79.26525        1.29343
C        113.57245       79.41541       -0.38677
C        115.71718       80.77866        1.38943
H        113.49880       77.24712        1.48388
H        114.51852       76.98562       -1.21165
H        115.64140       79.15651       -0.86581
H        116.50784       78.80306        1.45320
H        114.84711       78.94717        2.12392
H        112.81904       79.14437        0.38177
H        113.63428       80.52143       -0.43625
H        113.20873       79.07058       -1.37763
H        114.75453       81.32500        1.32986
H        116.17997       81.02430        2.36896
H        116.39477       81.12829        0.58180
N        117.30807       76.68696       -0.84889
C        117.26122       77.20803       -2.21009
C        117.78321       76.12117       -3.14171
O        118.94931       75.76718       -3.02288
C        118.15579       78.46446       -2.31310
C        118.17932       79.10271       -3.68060
O        118.94599       80.19049       -3.88321
O        117.52005       78.65522       -4.60652
H        118.21299       76.29873       -0.53687
H        116.22684       77.48832       -2.49135
H        119.19781       78.19453       -2.03426
H        117.80412       79.22725       -1.58877
N        116.97717       75.51729       -4.06176
C        117.45417       74.44940       -4.93410
C        117.03610       74.66541       -6.36708
O        117.88099       74.78719       -7.24249
H        115.98005       75.77821       -4.09721
H        117.00034       73.48963       -4.60645
H        118.55755       74.33146       -4.87305
N        115.71234       74.63832       -6.67209
C        115.17081       74.68796       -8.02409
C        115.52999       75.95380       -8.77960
O        116.03164       75.84031       -9.89077
C        113.63738       74.44181       -8.01901
C        112.79489       75.42818       -7.23798
O        112.96750       75.58929       -5.91299
O        111.89443       76.03747       -7.79190
H        115.06202       74.48870       -5.88981
H        115.59662       73.83239       -8.59785
H        113.45301       73.43375       -7.59115
H        113.28855       74.41880       -9.07430
N        115.28207       77.19325       -8.27215
C        115.47570       78.39745       -9.06553
C        114.37949       78.57714      -10.10662
O        114.44630       79.54270      -10.85289
H        114.93246       77.28961       -7.30765
H        116.48534       78.38388       -9.53317
H        115.42480       79.28664       -8.40076
N        113.30065       77.73350      -10.16392
C        112.14832       77.88358      -11.04508
C        111.34205       79.15037      -10.76329
O        110.39712       79.40448      -11.49696
C        112.55187       77.71892      -12.52811
C        113.19135       76.34078      -12.80948
C        112.28167       75.18359      -12.45761
N        111.07983       75.02911      -13.06155
O        112.63890       74.37435      -11.61500
H        113.25639       76.93577       -9.52886
H        111.43392       77.05872      -10.82950
H        113.25904       78.51764      -12.83277
H        111.64675       77.81824      -13.16490
H        114.13702       76.25426      -12.23058
H        113.44718       76.27053      -13.88774
H        110.75790       75.69287      -13.77979
H        110.46676       74.23886      -12.80963
N        111.59395       79.94319       -9.67689
C        110.80123       81.11962       -9.32554
C        110.10643       80.95399       -7.97343
O        109.42022       81.88397       -7.56997
C        111.69401       82.39599       -9.32562
C        112.82594       82.34270       -8.28169
C        112.27738       82.65747      -10.72054
H        112.35818       79.69621       -9.03707
H        109.99257       81.28172      -10.07183
H        111.04761       83.26656       -9.07404
H        112.41353       82.19506       -7.26138
H        113.54597       81.52712       -8.49917
H        113.38755       83.30086       -8.28301
H        112.85754       83.60491      -10.72118
H        112.94988       81.83163      -11.03283
H        111.45881       82.75356      -11.46514
N        110.23336       79.82245       -7.21450
C        109.64550       79.67351       -5.88543
C        108.64478       78.52616       -5.86401
O        108.61732       77.72907       -6.79355
C        110.80627       79.44302       -4.89347
C        110.38085       79.23729       -3.46493
N        110.66971       78.07960       -2.82644
O        109.78290       80.12384       -2.87390
H        110.78825       79.02884       -7.56586
H        109.09483       80.59756       -5.60182
H        111.48941       80.31966       -4.92933
H        111.38308       78.55505       -5.23473
H        111.17806       77.32009       -3.30420
H        110.38465       77.94269       -1.84806
N        107.73485       78.42676       -4.84880
C        106.73112       77.36296       -4.79019
C        105.59686       77.70217       -3.81713
O        105.71016       78.66149       -3.06459
C        107.43376       76.04351       -4.37965
C        106.54445       74.83165       -4.46301
C        106.17859       74.12776       -3.30287
C        106.07594       74.39247       -5.71173
C        105.34729       73.00733       -3.39306
C        105.25134       73.26848       -5.79989
C        104.88167       72.57366       -4.64362
O        104.08149       71.49370       -4.74686
H        107.72950       79.17438       -4.14040
H        106.26553       77.29226       -5.79807
H        107.81752       76.17717       -3.34294
H        108.31411       75.84866       -5.02790
H        106.52666       74.44993       -2.32922
H        106.35392       74.91915       -6.61633
H        105.06584       72.47804       -2.49148
H        104.89936       72.93832       -6.76906
H        103.80050       70.98550       -3.97279
N        104.44049       76.97172       -3.81506
C        103.31591       77.25557       -2.93091
C        103.00837       76.01602       -2.10729
O        102.53722       75.04444       -2.68370
C        102.07200       77.64989       -3.75437
C        102.32372       78.86835       -4.65154
C        101.09506       79.19529       -5.45092
O        101.12746       79.15663       -6.67077
O         99.95047       79.53236       -4.82633
H        104.33168       76.19864       -4.48700
H        103.55317       78.10913       -2.26988
H        101.23284       77.86997       -3.05698
H        101.77402       76.79695       -4.40504
H        103.16054       78.64667       -5.35014
H        102.60259       79.74743       -4.03280
N        103.27518       75.90763       -0.77476
C        103.99771       76.89898        0.01428
C        103.08127       78.01603        0.46477
O        102.08461       77.74279        1.12008
C        104.65410       76.23296        1.24003
C        105.67718       75.16915        0.80581
C        106.36955       74.57465        1.99271
O        107.58157       74.65376        2.09785
O        105.66008       73.93427        2.93950
H        103.06013       74.99919       -0.33293
H        104.84508       77.30416       -0.58156
H        103.87842       75.77272        1.89268
H        105.18838       77.01463        1.82518
H        106.43155       75.63425        0.13249
H        105.17510       74.35106        0.24842
N        103.38917       79.31211        0.17594
C        102.59286       80.44266        0.60841
H        101.69604       80.13600        1.18644
H        103.21395       81.10066        1.25277
H        102.26162       81.02034       -0.27910
H        104.24438       79.51904       -0.36128
Ca       108.54904       72.47397        3.97915
O        108.35288       69.56943        2.18757
H        108.43407       68.59814        2.01416
H        107.57018       69.84863        1.65062
O        108.81718       70.29127        5.84663
H        108.84270       71.06229        6.46790
H        109.70672       70.29549        5.41095
O        106.42723       71.89945        0.44642
H        106.69894       71.60353       -0.45799
H        105.59440       71.39863        0.63610
O        105.66462       70.98273        3.88628
H        105.55566       70.27753        4.57232
H        104.93648       71.62580        4.07698

Ca 1.0



