%chk=apoCaM-CA-Ng.loop1.water2.frame799.chk
%nprocshared=20
%mem=10GB
%nosave
#b3lyp/svp scf=(tight,noincore,xqc) Test 
#IOP(5/87=12) Density=Current Pop=(MK,readradii) iop(6/33=2) iop(6/42=6)

apoCaM-CA-Ng.loop1.water2.frame799 

   0  1 
C         28.11522       61.22322       71.67087
C         28.61683       62.60317       71.99826
O         29.69490       62.72559       72.56035
H         27.13805       61.25973       71.14219
H         28.84355       60.71362       71.00452
H         27.99159       60.63021       72.59950
N         27.88829       63.69445       71.63857
C         28.31906       65.07760       71.81855
C         27.31631       65.86170       72.65280
O         26.11829       65.73072       72.45098
C         28.62848       65.70850       70.43756
C         27.69183       65.30804       69.31517
O         28.10379       64.53574       68.46325
O         26.42944       65.76560       69.19909
H         26.98923       63.53963       71.15623
H         29.28480       65.12883       72.37085
H         29.61956       65.28385       70.15472
H         28.77278       66.80871       70.50550
N         27.77246       66.72849       73.60861
C         26.92893       67.51995       74.49887
C         26.98340       68.98006       74.09807
O         28.06410       69.53377       73.94657
C         27.39682       67.35727       75.97066
C         26.65653       68.32876       76.92478
C         27.08160       68.22534       78.39607
C         26.54741       66.96377       79.08401
N         26.89216       66.96742       80.50607
H         28.79141       66.87020       73.69119
H         25.87032       67.18165       74.44929
H         28.48466       67.58059       76.04154
H         27.23626       66.30272       76.27811
H         25.55536       68.20038       76.84272
H         26.90183       69.36753       76.61538
H         26.65376       69.09940       78.93218
H         28.18822       68.29134       78.48089
H         26.96429       66.05383       78.60365
H         25.43852       66.94130       78.98458
H         26.48777       66.11704       80.95992
H         27.93106       66.95765       80.62421
H         26.49395       67.81579       80.97234
N         25.82076       69.68925       74.01641
C         25.77669       71.12703       73.74891
C         24.41089       71.73676       74.07861
O         23.44311       71.00328       74.22529
C         26.19570       71.47534       72.29197
C         26.18689       70.28711       71.37337
O         25.09963       69.50502       71.25186
O         27.21556       69.96480       70.79995
H         24.94387       69.19108       74.22926
H         26.47715       71.59003       74.47123
H         27.22890       71.88400       72.30316
H         25.53691       72.26093       71.86434
N         24.24565       73.08116       74.28441
C         25.34138       74.04731       74.21549
C         25.08674       75.43794       74.78895
O         26.02505       76.22072       74.73836
H         23.30001       73.38410       74.53274
H         25.67092       74.14459       73.16063
H         26.18985       73.67653       74.82341
N         23.91734       75.82989       75.37981
C         23.73308       77.13045       76.01319
C         23.38124       76.89146       77.47550
O         22.28476       77.21405       77.91147
C         22.65060       77.90715       75.23624
C         22.45527       79.32318       75.71715
O         21.63528       80.03552       75.16157
O         23.18204       79.82577       76.73558
H         23.10973       75.20243       75.42256
H         24.66576       77.73555       75.97269
H         21.68560       77.35868       75.29075
H         22.95975       77.96006       74.16937
N         24.29161       76.29043       78.29022
C         24.01397       75.90994       79.66510
C         22.98697       74.80846       79.69907
O         21.97785       74.93891       80.37902
H         25.22422       76.06469       77.91236
H         23.70017       76.79215       80.26560
H         24.94374       75.49930       80.11421
N         23.19031       73.68954       78.94924
C         22.26409       72.56622       78.87546
C         21.65335       72.49211       77.49573
O         22.00816       73.29593       76.64323
C         22.99058       71.24091       79.22321
C         24.09937       70.87800       78.22269
O         23.54717       71.32235       80.50846
H         24.03471       73.65932       78.35800
H         21.42543       72.70880       79.59311
H         22.26180       70.39836       79.19021
H         22.80790       71.16068       81.15104
H         24.53066       69.89788       78.50061
H         23.69532       70.78789       77.19178
H         24.91721       71.62700       78.22231
N         20.71426       71.55342       77.19671
C         20.09470       71.46535       75.87947
C         19.41669       72.79855       75.61562
O         19.78102       73.46124       74.65575
C         19.16054       70.21999       75.76449
C         19.99759       68.92215       75.99525
C         18.49016       70.18236       74.37635
C         19.18856       67.62436       75.97378
H         20.41672       70.90576       77.94211
H         20.89379       71.32543       75.11561
H         18.36431       70.28710       76.53847
H         20.48780       68.95612       76.98862
H         20.80188       68.85093       75.22987
H         17.89049       71.09912       74.20221
H         19.25624       70.09803       73.57514
H         17.78914       69.32788       74.29107
H         18.74364       67.43547       74.97687
H         19.86525       66.77196       76.20003
H         18.38954       67.65405       76.74374
N         18.49495       73.29620       76.49068
C         18.01162       74.67136       76.40540
C         16.82358       74.87075       77.32927
O         16.95350       74.69151       78.53177
C         19.15638       75.66284       76.76651
C         18.73538       77.12896       76.63223
O         19.58981       75.43320       78.08572
H         18.18012       72.69963       77.27062
H         17.67999       74.86380       75.36178
H         19.99774       75.51250       76.05035
H         20.56121       75.23941       78.05626
H         18.41007       77.34160       75.59256
H         17.90732       77.37218       77.33105
H         19.59650       77.78846       76.87446
N         15.62068       75.24068       76.80695
C         14.42764       75.46807       77.61216
C         13.22582       75.61833       76.69007
O         12.30764       74.81564       76.78550
C         14.61442       76.68724       78.57074
C         13.39367       76.90762       79.48316
O         14.95973       77.85792       77.86508
H         15.54852       75.34002       75.78289
H         14.25059       74.56386       78.23782
H         15.45707       76.47826       79.26055
H         14.14406       78.40276       77.71088
H         13.59174       77.75463       80.17499
H         12.48741       77.14566       78.88677
H         13.19864       75.99738       80.08798
N         13.16895       76.62470       75.77414
C         12.04017       76.85751       74.88739
C         12.52941       76.98647       73.45679
O         13.38496       77.82251       73.19613
C         11.32642       78.13616       75.35998
C         10.12761       78.52270       74.48095
C          9.36762       79.69611       75.11002
C          8.22903       80.17969       74.20514
N          7.47741       81.25610       74.85042
H         13.94856       77.29560       75.72320
H         11.29473       76.03402       74.95570
H         12.04127       78.98821       75.39079
H         10.96791       77.94714       76.39696
H          9.43352       77.65946       74.37839
H         10.49507       78.80792       73.47087
H         10.06489       80.54381       75.28790
H          8.95005       79.36666       76.08746
H          7.53874       79.33716       73.97877
H          8.65802       80.55108       73.24748
H          6.73536       81.59675       74.19768
H          7.02257       80.89916       75.72235
H          8.11319       82.05240       75.08686
N         11.97767       76.23547       72.46038
C         12.34146       76.42203       71.06006
C         13.76897       75.95211       70.78349
O         14.56682       76.79659       70.40188
C         11.29430       75.81129       70.10085
C          9.92370       76.49389       70.25932
C          8.93686       75.96106       69.26155
O          8.42348       76.71086       68.44632
O          8.60471       74.65597       69.26688
H         11.22006       75.57744       72.69884
H         12.30585       77.51511       70.84152
H         11.16323       74.72887       70.26571
H         11.64252       75.97471       69.05654
H         10.03872       77.59027       70.10867
H          9.52008       76.32372       71.27965
N         14.22117       74.67281       70.94951
C         13.42825       73.54837       71.39542
H         12.65329       73.29303       70.65172
H         14.07712       72.65055       71.48331
H         12.98220       73.75239       72.38926
H         15.21742       74.48563       70.75337
Ca        25.59839       67.62019       70.14457
O         22.18726       68.16329       69.82773
H         21.49461       67.48797       69.61605
H         21.99117       68.43636       70.75914
O         23.15811       66.48906       72.53503
H         23.09273       67.03625       73.35767
H         23.30975       65.56648       72.86126

Ca 1.0



