%chk=apoCaM-CA-Ng.loop1.water1.frame1273.chk
%nprocshared=20
%mem=10GB
%nosave
#b3lyp/svp scf=(tight,noincore,xqc) Test 
#IOP(5/87=12) Density=Current Pop=(MK,readradii) iop(6/33=2) iop(6/42=6)

apoCaM-CA-Ng.loop1.water1.frame1273 

   0  1 
C         60.26302       32.36501       14.63331
C         61.33670       33.37159       14.35036
O         61.38842       34.37520       15.04769
H         59.27024       32.85303       14.52324
H         60.31238       31.50906       13.92934
H         60.36720       31.98844       15.67165
N         62.20904       33.19257       13.31408
C         63.20388       34.19215       12.94008
C         62.81591       34.77453       11.59527
O         63.61886       34.84373       10.67489
C         64.61618       33.58132       12.95282
C         64.96591       33.04288       14.31184
O         65.00262       33.86574       15.37754
O         65.22011       31.85757       14.45564
H         62.12635       32.34754       12.72822
H         63.18360       35.03936       13.65286
H         65.36431       34.35574       12.67779
H         64.66605       32.76100       12.20235
N         61.53330       35.19072       11.42971
C         60.99771       35.77138       10.20824
C         61.54822       37.17373        9.98652
O         62.09974       37.39238        8.91724
C         59.44984       35.73765       10.22127
C         58.95748       34.27784       10.29988
C         57.43515       34.17323       10.38484
C         57.01772       32.69797       10.48906
N         55.56891       32.56646       10.62143
H         60.88641       35.04228       12.21745
H         61.29086       35.13211        9.34356
H         59.06220       36.19357        9.28380
H         59.03916       36.31390       11.07333
H         59.37256       33.78354       11.20316
H         59.31875       33.72352        9.40535
H         56.97350       34.63373        9.48475
H         57.08491       34.71673       11.28973
H         57.50460       32.23466       11.37722
H         57.35737       32.15029        9.58141
H         55.24496       33.04871       11.49120
H         55.09260       32.97853        9.78697
H         55.32474       31.55175       10.68741
N         61.50250       38.18647       10.90826
C         60.97865       38.09678       12.27187
C         62.12361       38.13627       13.27033
O         63.26611       38.33171       12.87605
C         59.87607       39.14097       12.51020
C         60.29568       40.52871       12.14683
O         61.21315       41.08267       12.72937
O         59.65637       41.15589       11.14442
H         61.94460       39.08033       10.63931
H         60.49958       37.13145       12.45276
H         59.52364       39.11328       13.56331
H         59.01379       38.87264       11.86015
N         61.89912       37.80191       14.57369
C         62.98814       37.51966       15.49581
C         63.81434       38.71378       15.88702
O         63.45326       39.84132       15.58715
H         60.93710       37.59446       14.88227
H         63.65505       36.77201       15.02111
H         62.58624       37.06751       16.42811
N         64.98216       38.49971       16.56087
C         65.85745       39.55831       17.06240
C         66.20329       39.24679       18.53790
O         65.87861       38.15280       18.98037
C         67.17910       39.56215       16.24600
C         67.07843       39.14480       14.79635
O         67.66125       38.12917       14.45171
O         66.42201       39.82774       13.84206
H         65.28038       37.52095       16.69893
H         65.34663       40.53584       16.94536
H         67.85499       38.80709       16.70632
H         67.68946       40.54059       16.31032
N         66.92609       40.06099       19.36428
C         67.22475       41.45612       19.13166
C         65.97523       42.23541       19.39605
O         65.47543       42.15679       20.51191
H         67.20674       39.68441       20.28429
H         67.66319       41.62825       18.13591
H         67.97255       41.80124       19.87926
N         65.38355       42.97597       18.42374
C         64.12092       43.66918       18.63925
C         63.03974       43.02498       17.79638
O         63.34651       42.24356       16.90764
C         64.28632       45.17967       18.35041
C         65.30805       45.81273       19.29851
O         63.06712       45.85582       18.51069
H         65.81715       43.01083       17.48757
H         63.78922       43.54840       19.69481
H         64.66566       45.32082       17.31073
H         62.60633       45.82686       17.63201
H         66.30337       45.33285       19.18950
H         65.41577       46.89360       19.06784
H         64.97124       45.70692       20.35256
N         61.73221       43.25953       18.08953
C         60.58613       42.66374       17.41604
C         60.51706       43.12003       15.96806
O         61.31572       42.67757       15.15686
C         60.55429       41.09976       17.52677
C         60.66425       40.64262       19.00498
C         59.27484       40.54168       16.86561
C         60.75495       39.12118       19.17338
H         61.51901       43.88898       18.87968
H         59.68228       43.04438       17.94264
H         61.42241       40.68098       16.97921
H         59.79935       41.02445       19.58940
H         61.59346       41.06379       19.44448
H         59.26570       39.43378       16.86618
H         58.36993       40.91256       17.39249
H         59.21492       40.84288       15.79983
H         61.62140       38.71957       18.60510
H         60.89326       38.87544       20.24734
H         59.82832       38.61394       18.83775
N         59.53200       43.97695       15.57719
C         59.25092       44.29389       14.17965
C         59.45973       45.76723       13.82491
O         59.25085       46.10112       12.66404
C         57.81064       43.81911       13.83891
C         56.71834       44.51359       14.66537
O         57.70409       42.43474       14.05350
H         58.91856       44.37451       16.30058
H         59.92962       43.72196       13.51895
H         57.59600       44.04572       12.76791
H         58.06383       41.98560       13.24581
H         56.80718       44.27332       15.74516
H         56.76034       45.61419       14.53320
H         55.72010       44.15514       14.33706
N         59.85104       46.70901       14.73273
C         59.96700       48.13047       14.38938
C         61.06864       48.40109       13.36616
O         62.22951       48.14706       13.65381
C         60.14748       49.01208       15.65489
C         61.44292       48.76709       16.44662
O         60.08922       50.36408       15.27686
H         60.00056       46.41964       15.70999
H         58.98925       48.43820       13.95420
H         59.28513       48.77426       16.32213
H         59.74484       50.87106       16.05748
H         61.43888       49.39492       17.36173
H         61.52852       47.70977       16.75892
H         62.34281       49.04901       15.86526
N         60.76270       48.92050       12.13760
C         61.74999       49.26234       11.10854
C         62.65281       48.07049       10.86355
O         63.86766       48.16298       10.98374
C         62.53132       50.53767       11.49426
C         61.57905       51.71744       11.74843
C         62.35065       53.00024       12.08356
C         61.42829       54.16113       12.49820
N         60.51279       54.56980       11.43116
H         59.77007       49.06457       11.89751
H         61.20262       49.48563       10.16496
H         63.22331       50.79848       10.66256
H         63.13377       50.35480       12.41059
H         60.91567       51.46642       12.60426
H         60.95568       51.88074       10.84371
H         62.97321       53.30248       11.21295
H         63.02755       52.79479       12.94133
H         62.06771       55.02852       12.77426
H         60.84359       53.86890       13.39885
H         59.96159       55.39567       11.75926
H         61.05082       54.84068       10.57657
H         59.83909       53.80425       11.20519
N         62.06740       46.86940       10.64065
C         62.77850       45.60775       10.71923
C         61.78976       44.52149       11.11567
O         61.96787       43.98379       12.19892
C         63.65362       45.31170        9.47160
C         64.16234       43.85918        9.45036
C         64.82722       43.44839       10.73372
O         64.21536       42.53964       11.51976
O         65.88505       43.94750       11.08074
H         61.03609       46.85053       10.61456
H         63.48485       45.66697       11.58139
H         64.50967       46.02094        9.46141
H         63.10148       45.46974        8.52584
H         64.84922       43.69627        8.59198
H         63.28109       43.19957        9.29270
N         60.71014       44.13754       10.37893
C         60.31688       44.64843        9.08596
H         59.29325       45.06852        9.16169
H         60.97578       45.44199        8.70629
H         60.30889       43.81040        8.35785
H         60.09660       43.42097       10.78074
Ca        65.14777       41.59875       13.33997
O         65.09627       44.58802       14.60384
H         65.89643       44.38731       14.05647
H         65.07085       43.86273       15.27687

Ca 1.0



