%chk=apoCaM-CA-Ng.loop1.water4.frame304.chk
%nprocshared=20
%mem=10GB
%nosave
#b3lyp/svp scf=(tight,noincore,xqc) Test 
#IOP(5/87=12) Density=Current Pop=(MK,readradii) iop(6/33=2) iop(6/42=6)

apoCaM-CA-Ng.loop1.water4.frame304 

   0  1 
C         52.51471       50.66652       43.53443
C         52.62625       52.13520       43.24404
O         53.17003       52.87561       44.05084
H         51.44398       50.36984       43.53577
H         53.04322       50.09070       42.74466
H         52.95891       50.41719       44.52009
N         52.13257       52.61744       42.07305
C         52.21288       54.01382       41.65223
C         51.35318       55.00440       42.45698
O         51.26013       56.13480       42.01680
C         52.01384       54.15396       40.11296
C         50.70653       53.66421       39.54205
O         49.96735       54.43900       38.95913
O         50.39290       52.35532       39.56178
H         51.75131       51.92164       41.41998
H         53.25513       54.35087       41.78888
H         52.82840       53.59869       39.59805
H         52.14569       55.22397       39.84203
N         50.76152       54.71551       43.65499
C         49.99692       55.69521       44.43985
C         50.64739       55.95015       45.79906
O         51.01340       54.97257       46.43619
C         48.56126       55.18268       44.62175
C         47.81280       55.25505       43.28485
C         46.36015       54.80515       43.42095
C         45.61146       55.03867       42.10292
N         44.22272       54.59919       42.20203
H         50.84516       53.77190       44.05133
H         49.91270       56.64983       43.91352
H         48.02535       55.83967       45.34079
H         48.56564       54.15048       45.03601
H         48.32406       54.63349       42.51754
H         47.82194       56.31441       42.94557
H         45.86142       55.39300       44.22274
H         46.33530       53.72781       43.69367
H         46.11482       54.48427       41.28002
H         45.63135       56.12547       41.86028
H         44.18811       53.57093       42.38829
H         43.73537       55.11726       42.96883
H         43.73905       54.79861       41.29677
N         50.78751       57.19299       46.38376
C         50.32595       58.49531       45.88341
C         48.81942       58.49150       45.62810
O         48.40988       58.49438       44.47593
C         51.14008       59.02681       44.68363
C         52.57749       59.32372       44.99040
O         53.09732       59.09169       46.21019
O         53.28200       59.80961       44.12043
H         51.21641       57.21346       47.32280
H         50.51048       59.26716       46.66227
H         50.70132       59.99771       44.39312
H         51.09483       58.35231       43.82009
N         47.90351       58.52331       46.63940
C         48.26924       58.72269       48.03405
C         47.06891       58.80802       48.97048
O         45.95397       58.53837       48.54778
H         46.90717       58.49083       46.37568
H         48.79179       59.70298       48.08309
H         48.94705       57.91547       48.38393
N         47.18696       59.23631       50.26379
C         48.44027       59.68639       50.86275
C         48.48094       61.20143       50.89789
O         47.46593       61.84668       50.66912
C         48.69729       59.01321       52.23048
C         47.68845       59.30738       53.31583
O         46.74838       60.06420       53.13261
O         47.83447       58.72147       54.51950
H         46.31881       59.33968       50.81067
H         49.28959       59.39002       50.21768
H         49.69669       59.32146       52.60613
H         48.71761       57.91350       52.07091
N         49.67210       61.83689       51.06110
C         49.83067       63.27405       50.92819
C         49.40635       63.74642       49.55010
O         48.59353       64.65413       49.45183
H         50.52152       61.27330       51.22198
H         50.90755       63.52126       51.05740
H         49.25927       63.80184       51.72207
N         49.94021       63.16838       48.43610
C         49.65190       63.60561       47.06470
C         48.18106       63.41137       46.69779
O         47.43975       62.80465       47.46139
C         50.56797       62.82998       46.06675
C         52.05061       63.10469       46.32993
O         50.30293       63.20315       44.74226
H         50.60553       62.39609       48.58720
H         49.88242       64.69164       46.99234
H         50.35532       61.74235       46.19660
H         50.63629       62.47129       44.16088
H         52.26698       64.18464       46.18729
H         52.34258       62.81720       47.35385
H         52.67098       62.51813       45.61968
N         47.69837       63.91202       45.51865
C         46.32476       63.73921       45.05544
C         46.25088       62.86976       43.79695
O         45.15003       62.47293       43.44801
C         45.62949       65.12264       44.82876
C         46.29995       65.92929       43.67642
C         45.60691       65.92156       46.14498
C         45.60877       67.25528       43.35034
H         48.33932       64.44840       44.92030
H         45.74690       63.18647       45.82978
H         44.57242       64.92862       44.53850
H         46.27408       65.31831       42.74963
H         47.35987       66.15366       43.91321
H         45.02721       66.86053       46.03545
H         45.11326       65.32863       46.94332
H         46.63741       66.17664       46.47190
H         46.11638       67.72758       42.48186
H         44.54319       67.08731       43.08894
H         45.67810       67.96635       44.19831
N         47.35837       62.56649       43.04469
C         47.30284       61.74858       41.83067
C         48.43893       60.72881       41.78534
O         49.32188       60.76349       42.62142
C         47.32317       62.65446       40.57530
C         48.61211       63.47534       40.45652
O         46.23217       63.53790       40.60618
H         48.26185       62.98204       43.28799
H         46.34930       61.17639       41.81545
H         47.25231       62.02488       39.65859
H         45.41583       62.99454       40.44949
H         48.72923       64.15976       41.32270
H         49.49861       62.80919       40.39745
H         48.57787       64.08915       39.53240
N         48.44768       59.76436       40.82138
C         49.45533       58.70551       40.74070
C         50.80766       59.19469       40.22635
O         50.85233       59.82569       39.18028
C         48.95215       57.53222       39.85358
C         48.76728       57.85512       38.36185
O         47.73705       57.06218       40.37524
H         47.64311       59.73245       40.18061
H         49.57313       58.25315       41.75072
H         49.72033       56.73067       39.93254
H         47.65288       56.11177       40.10087
H         48.39633       56.95083       37.83483
H         48.03474       58.67255       38.20845
H         49.72927       58.12660       37.88451
N         51.96531       58.84403       40.86543
C         53.29782       59.04959       40.29812
C         54.36769       58.61649       41.29851
O         55.17523       59.44835       41.68710
C         53.45086       58.22988       38.98243
C         54.77574       58.44302       38.22811
C         54.89952       59.86567       37.66344
C         56.16019       60.02030       36.80379
N         56.24383       61.37036       36.24644
H         51.89745       58.36571       41.76791
H         53.41546       60.13348       40.08824
H         52.63351       58.46380       38.27146
H         53.35984       57.14987       39.21787
H         54.78480       57.73210       37.37195
H         55.64270       58.20120       38.88035
H         54.93706       60.60337       38.49123
H         54.01108       60.07976       37.02922
H         56.13452       59.28413       35.96910
H         57.06223       59.81868       37.42291
H         57.10844       61.44955       35.66417
H         55.41165       61.56137       35.64167
H         56.28724       62.07601       37.01719
N         54.42081       57.32867       41.76240
C         55.39462       56.85338       42.74151
C         56.21015       55.71775       42.15481
O         55.65202       54.67907       41.83388
C         54.64776       56.42466       44.02539
C         55.50650       55.90066       45.19230
C         56.62573       56.82874       45.58433
O         57.60010       56.94444       44.85963
O         56.59181       57.51613       46.74251
H         53.72245       56.65377       41.42297
H         56.07894       57.68198       43.01502
H         53.88887       55.64850       43.78827
H         54.10271       57.31021       44.39225
H         55.93634       54.90373       44.95474
H         54.82014       55.76639       46.05696
N         57.55525       55.85550       41.98682
C         58.40530       54.81404       41.44646
H         59.18700       54.55702       42.19159
H         57.84237       53.88959       41.19870
H         58.89621       55.18471       40.52280
H         58.00958       56.74254       42.24894
Ca        54.80291       57.62094       48.11846
O         54.58185       61.87891       48.13839
H         54.18237       62.28368       48.94945
H         54.80667       62.65127       47.56083
O         56.15701       61.05031       45.44765
H         55.45442       60.35464       45.48058
H         55.95344       61.57366       44.63255
O         58.28893       59.99487       47.37243
H         58.37535       59.63433       46.45416
H         58.40008       59.20614       47.96065
O         56.44847       60.57337       49.93299
H         55.89584       60.83821       50.71078
H         57.37772       60.77890       50.20526

Ca 1.0



