%chk=apoCaM-CA-Ng.loop1.water2.frame1180.chk
%nprocshared=20
%mem=10GB
%nosave
#b3lyp/svp scf=(tight,noincore,xqc) Test 
#IOP(5/87=12) Density=Current Pop=(MK,readradii) iop(6/33=2) iop(6/42=6)

apoCaM-CA-Ng.loop1.water2.frame1180 

   0  1 
C         21.84699       35.79947        2.37286
C         22.95134       36.80009        2.52406
O         22.79689       37.71648        3.31955
H         20.92428       36.32085        2.03934
H         22.10377       35.02069        1.62579
H         21.65409       35.31171        3.35091
N         24.08999       36.70523        1.77464
C         25.16525       37.68715        1.85216
C         25.23496       38.48446        0.56972
O         26.28745       38.61566       -0.03961
C         26.49889       37.04486        2.29468
C         27.07363       36.00050        1.37041
O         28.22767       35.39530        1.70791
O         26.52426       35.69641        0.32364
H         24.17319       35.93377        1.09715
H         24.92298       38.43697        2.62276
H         26.34031       36.57713        3.29003
H         27.25545       37.85125        2.41656
N         24.10223       39.10178        0.14159
C         24.05189       40.02715       -0.97847
C         24.94838       41.22676       -0.70117
O         25.78825       41.49921       -1.54747
C         22.59185       40.43023       -1.30457
C         21.79914       39.19073       -1.76619
C         20.34233       39.50132       -2.11878
C         19.63651       38.21600       -2.58405
N         18.23509       38.46495       -2.91382
H         23.23584       38.93272        0.67443
H         24.43365       39.51803       -1.89343
H         22.59630       41.17079       -2.13492
H         22.09507       40.89914       -0.43052
H         21.79862       38.42004       -0.96668
H         22.29975       38.76263       -2.66297
H         20.30585       40.25989       -2.93069
H         19.82414       39.90628       -1.22230
H         19.68888       37.44954       -1.77815
H         20.15669       37.81197       -3.48163
H         17.72447       38.81192       -2.06981
H         18.16608       39.16594       -3.68653
H         17.79708       37.56887       -3.22902
N         24.93108       41.96971        0.44844
C         24.06606       41.77662        1.61209
C         24.86344       41.21927        2.79451
O         26.06302       41.01400        2.67906
C         23.25337       43.06694        1.87999
C         24.03080       44.35990        1.79903
O         24.99290       44.68363        2.68013
O         23.76249       45.15405        0.91119
H         25.64044       42.71617        0.52624
H         23.30914       41.00055        1.43330
H         22.69762       42.99832        2.83627
H         22.48931       43.11942        1.07189
N         24.21462       40.84783        3.93877
C         24.82394       40.11367        5.04693
C         25.96061       40.84309        5.77809
O         25.51433       42.08414        6.20801
H         23.19997       41.01703        4.00037
H         25.21614       39.14262        4.68634
H         24.02595       39.88781        5.78831
N         26.34337       40.03775        6.95157
C         27.11896       40.74330        7.99948
C         26.84696       40.09156        9.35177
O         26.43620       38.93945        9.37328
C         28.63128       40.74012        7.67554
C         28.93656       41.51087        6.42440
O         28.63926       42.82305        6.35006
O         29.46833       40.95677        5.47633
H         26.80233       39.14230        6.66144
H         26.76579       41.78403        8.09001
H         28.98358       39.69006        7.57592
H         29.21662       41.20316        8.49037
N         27.03599       40.73721       10.54486
C         27.44582       42.12727       10.68722
C         26.37175       43.11462       10.27163
O         25.24424       42.72619       10.00708
H         26.88139       40.20354       11.41463
H         28.37677       42.30518       10.12204
H         27.67391       42.33957       11.75422
N         26.68875       44.43715       10.19661
C         25.75600       45.51347        9.85236
C         25.04021       45.26471        8.52439
O         25.67876       44.85312        7.56831
C         26.51049       46.86819        9.84956
C         25.57965       48.05320        9.60042
O         27.51914       46.87373        8.87105
H         27.66703       44.68945       10.40635
H         24.98772       45.57436       10.65477
H         26.95196       47.02446       10.86436
H         28.37930       46.67811        9.32566
H         26.15643       49.00098        9.65331
H         25.12538       47.97314        8.59241
H         24.77522       48.08314       10.36539
N         23.69342       45.51397        8.42634
C         22.82109       45.24482        7.27633
C         23.25339       45.98404        6.01297
O         24.32514       45.70132        5.50093
C         22.72999       43.71841        6.99450
C         22.32718       42.92302        8.26170
C         21.76048       43.41981        5.83090
C         22.53269       41.41228        8.11054
H         23.22258       45.90377        9.25737
H         21.79702       45.58546        7.55077
H         23.73359       43.40185        6.69694
H         21.27385       43.14536        8.53514
H         22.96444       43.22868        9.11321
H         20.72809       43.72978        6.09802
H         22.06184       43.96055        4.91215
H         21.75736       42.34410        5.57009
H         23.59940       41.19574        7.88892
H         22.27238       40.90593        9.06287
H         21.89903       40.98218        7.31097
N         22.43420       46.89774        5.41274
C         22.73894       47.48429        4.10411
C         23.15700       48.93341        4.24577
O         22.65733       49.80559        3.54384
C         21.58525       47.22421        3.09612
C         20.22670       47.79429        3.53639
O         21.45169       45.83928        2.90666
H         21.56393       47.17112        5.89037
H         23.64160       46.99861        3.67345
H         21.88038       47.70247        2.13124
H         21.07092       45.70314        1.99979
H         19.86184       47.29706        4.45893
H         20.28036       48.88716        3.71170
H         19.47177       47.60732        2.74313
N         24.12725       49.24180        5.14488
C         24.71378       50.55984        5.33140
C         26.22263       50.40831        5.41095
O         26.68658       49.59827        6.20564
C         24.16373       51.22674        6.61323
C         22.66518       51.55013        6.49171
O         24.41690       50.44962        7.75635
H         24.47028       48.48476        5.75836
H         24.45084       51.24048        4.48887
H         24.68420       52.20115        6.74182
H         23.78354       49.68541        7.74751
H         22.31842       52.07416        7.40663
H         22.48604       52.21368        5.61830
H         22.06460       50.62472        6.36324
N         27.05453       51.16121        4.63696
C         28.51441       51.06077        4.64668
C         28.93406       49.70207        4.10060
O         29.62388       48.95422        4.77725
C         29.10829       51.31756        6.05958
C         28.64257       52.63293        6.70036
C         29.22466       52.75647        8.11947
C         28.72579       53.99071        8.88754
N         29.15704       55.24543        8.27168
H         26.63506       51.86019        4.00183
H         28.91847       51.83608        3.95914
H         30.21837       51.31848        5.98696
H         28.82802       50.48851        6.74142
H         27.53348       52.63412        6.77597
H         28.96270       53.48373        6.06360
H         30.33556       52.76897        8.07456
H         28.91329       51.86282        8.70522
H         29.13805       53.94045        9.92011
H         27.61589       53.96709        8.96305
H         28.84916       56.04038        8.87680
H         30.19972       55.26687        8.19250
H         28.72224       55.36336        7.32952
N         28.49432       49.31382        2.86810
C         28.73813       47.98480        2.31108
C         27.43484       47.19581        2.26492
O         27.39725       46.17404        2.93597
C         29.45842       48.01316        0.94471
C         30.86640       48.61275        1.03978
C         31.56507       48.53878       -0.28933
O         32.70042       47.82508       -0.41663
O         31.10843       49.12236       -1.25960
H         27.91275       49.97992        2.34861
H         29.41500       47.41298        2.98619
H         28.88451       48.56499        0.17928
H         29.56063       46.96145        0.59284
H         31.45778       48.04016        1.78815
H         30.81337       49.67326        1.36584
N         26.31095       47.53217        1.56092
C         26.10180       48.67515        0.69781
H         25.25732       49.27669        1.09493
H         26.96717       49.33623        0.59266
H         25.83321       48.31363       -0.31675
H         25.49812       46.90923        1.64689
Ca        25.56165       43.44545        4.43357
O         28.46029       43.11191        3.06748
H         28.45174       42.14724        3.28964
H         27.71622       43.22377        2.42431
O         28.11639       46.16165        5.70163
H         27.85327       47.10788        5.81085
H         28.25161       45.82952        6.62332

Ca 1.0



