%chk=apoCaM-CA-Ng.loop1.water3.frame1458.chk
%nprocshared=20
%mem=10GB
%nosave
#b3lyp/svp scf=(tight,noincore,xqc) Test 
#IOP(5/87=12) Density=Current Pop=(MK,readradii) iop(6/33=2) iop(6/42=6)

apoCaM-CA-Ng.loop1.water3.frame1458 

   0  1 
C         34.67133       84.52284       80.08823
C         34.79426       85.59336       79.04740
O         35.46553       85.38013       78.04748
H         33.60535       84.23427       80.19777
H         35.25951       83.62491       79.80144
H         35.05065       84.90254       81.06025
N         34.17808       86.79407       79.23454
C         34.25933       87.89361       78.28108
C         35.07021       89.03987       78.87065
O         34.87937       90.17911       78.46572
C         32.83735       88.34506       77.87439
C         32.01691       87.26868       77.20821
O         32.51675       86.03717       76.98632
O         30.87666       87.52059       76.85349
H         33.65081       86.94915       80.10815
H         34.79452       87.58693       77.35483
H         32.91143       89.19306       77.15881
H         32.29541       88.69536       78.77984
N         36.08161       88.79105       79.75511
C         36.99208       89.82153       80.24164
C         37.70844       90.51716       79.08530
O         37.58038       91.73097       79.00928
C         38.02640       89.24467       81.24674
C         37.44529       88.85094       82.61869
C         37.05868       90.08733       83.45562
C         36.68624       89.75206       84.90894
N         35.45354       88.97156       85.00624
H         36.24127       87.82213       80.06789
H         36.40523       90.60172       80.77041
H         38.82996       89.99122       81.43119
H         38.51429       88.35074       80.81581
H         38.25204       88.32107       83.17153
H         36.59398       88.14903       82.49468
H         36.22527       90.64797       82.98567
H         37.94493       90.75808       83.50241
H         36.54361       90.71055       85.45637
H         37.52276       89.20489       85.39851
H         34.66501       89.49190       84.55766
H         35.57000       88.03665       84.55612
H         35.22755       88.82646       86.01698
N         38.48106       89.89554       78.14302
C         38.71637       88.46147       78.01072
C         38.23181       87.95622       76.65914
O         37.76080       88.73678       75.84324
C         40.20442       88.14740       78.27954
C         41.15887       88.96274       77.45546
O         41.15588       88.89064       76.23807
O         42.03339       89.77783       78.07493
H         38.93363       90.50269       77.44049
H         38.13447       87.88680       78.74542
H         40.40903       87.06820       78.12489
H         40.41305       88.37169       79.34791
N         38.25045       86.62089       76.39338
C         37.70553       86.03168       75.18107
C         38.50817       86.33522       73.93668
O         39.50884       87.03044       74.00586
H         38.59934       85.97561       77.11780
H         36.65124       86.35797       75.04892
H         37.71137       84.92663       75.29919
N         38.12555       85.75594       72.75920
C         38.85572       85.86218       71.48590
C         38.42492       84.73027       70.52102
O         37.42004       84.08464       70.78174
C         38.60952       87.25066       70.83361
C         39.18910       88.39505       71.61925
O         38.45371       89.26105       72.06289
O         40.52308       88.47320       71.82904
H         37.30578       85.13528       72.81848
H         39.92750       85.69669       71.70422
H         37.51183       87.38658       70.70546
H         39.05292       87.31920       69.82950
N         39.12049       84.37249       69.39346
C         40.36971       84.95148       68.93016
C         41.51267       84.72113       69.88527
O         41.45324       83.81549       70.70471
H         38.73427       83.60693       68.81768
H         40.24482       86.02506       68.71967
H         40.66089       84.49518       67.95929
N         42.59169       85.54786       69.83932
C         43.72889       85.45325       70.75075
C         43.25062       85.59250       72.18524
O         42.50502       86.51603       72.47087
C         44.77796       86.55085       70.44142
C         45.38527       86.38880       69.04169
O         45.81442       86.47385       71.38825
H         42.57581       86.30644       69.14104
H         44.23104       84.46848       70.62339
H         44.27385       87.54331       70.50977
H         46.27435       87.35398       71.38713
H         44.61687       86.46163       68.24653
H         46.13057       87.19300       68.86533
H         45.89691       85.40656       68.95779
N         43.66730       84.70374       73.13587
C         43.27105       84.70647       74.54387
C         43.64465       86.02232       75.21271
O         43.01860       87.03674       74.94286
C         41.76254       84.35397       74.70840
C         41.47145       82.96972       74.07126
C         41.34921       84.36608       76.19539
C         39.98079       82.65118       73.95207
H         44.32873       83.96598       72.84941
H         43.84758       83.89448       75.04283
H         41.17036       85.12097       74.17239
H         41.98509       82.16984       74.64840
H         41.87143       82.94380       73.03894
H         41.52837       85.36232       76.64889
H         40.26846       84.15726       76.31700
H         41.92763       83.60869       76.76686
H         39.47950       83.42253       73.33180
H         39.85590       81.66843       73.45061
H         39.48666       82.59438       74.94117
N         44.66096       86.06610       76.11796
C         45.05274       87.28148       76.82200
C         46.45555       87.74192       76.44679
O         46.88006       88.73743       77.01415
C         44.88517       87.09556       78.35162
C         45.75466       85.98552       78.94850
O         43.53761       86.81326       78.63785
H         45.18612       85.20102       76.31172
H         44.38678       88.12886       76.54316
H         45.19190       88.04951       78.84828
H         43.16682       87.58768       79.13590
H         46.82921       86.17531       78.74692
H         45.60356       85.95353       80.04864
H         45.47271       84.99319       78.54100
N         47.22135       87.12068       75.49165
C         48.53774       87.62846       75.08711
C         48.34591       89.01834       74.48302
O         47.86305       89.11802       73.36331
C         49.21180       86.64533       74.09352
C         50.62156       87.08815       73.69405
O         49.28981       85.37514       74.69100
H         46.85743       86.27693       75.02589
H         49.17104       87.68592       76.00099
H         48.57403       86.58939       73.17815
H         49.28682       84.70594       73.95668
H         51.05206       86.35279       72.98026
H         50.60030       88.08033       73.19829
H         51.27744       87.13789       74.58894
N         48.51409       90.12533       75.26995
C         48.00514       91.46446       74.96024
C         46.50002       91.45548       74.65710
O         45.90263       90.40721       74.48447
C         48.76719       92.18312       73.81807
C         50.18158       92.66027       74.20238
C         50.70074       93.65472       73.13910
C         52.02979       94.33847       73.50160
N         53.16160       93.41496       73.47262
H         48.89449       89.99156       76.21936
H         48.11848       92.08183       75.87972
H         48.19825       93.10859       73.58893
H         48.78575       91.57267       72.88996
H         50.86260       91.79355       74.33376
H         50.11746       93.21372       75.16549
H         49.95322       94.47478       73.05062
H         50.78451       93.16063       72.14735
H         51.95083       94.82078       74.50172
H         52.21670       95.14397       72.75557
H         53.25406       92.99953       72.51709
H         54.03498       93.94852       73.68912
H         53.04284       92.66067       74.18427
N         45.82267       92.63508       74.59360
C         44.42880       92.77150       74.16332
C         43.42460       91.88109       74.95516
O         42.18480       91.95892       74.29073
C         43.98500       94.25447       74.25486
C         44.77166       95.20202       73.33899
C         44.34848       96.61972       73.59492
O         44.53407       97.16692       74.81281
O         43.84309       97.28435       72.70560
H         46.34687       93.48511       74.84450
H         44.37282       92.43628       73.10334
H         44.10039       94.58273       75.31178
H         42.91137       94.34515       73.98007
H         44.58337       94.92217       72.27958
H         45.86237       95.14570       73.52443
N         43.21714       92.34373       76.33784
C         44.36122       92.12454       77.22171
H         45.19689       92.80141       76.96121
H         44.06921       92.39251       78.25964
H         44.68817       91.06303       77.20337
H         42.41020       91.80911       76.72963
Ca        41.48471       90.06127       73.16726
O         39.03835       91.22293       74.54372
H         39.31809       90.27482       74.58634
H         38.59351       91.30887       73.66388
O         44.37271       88.76180       72.77664
H         43.92778       89.39729       73.38725
H         44.85343       88.13926       73.37727
O         42.66496       90.89112       70.53641
H         43.51771       90.43235       70.74220
H         42.60133       91.61043       71.21416

Ca 1.0



