%chk=apoCaM-CA-Ng.loop1.water2.frame127.chk
%nprocshared=20
%mem=10GB
%nosave
#b3lyp/svp scf=(tight,noincore,xqc) Test 
#IOP(5/87=12) Density=Current Pop=(MK,readradii) iop(6/33=2) iop(6/42=6)

apoCaM-CA-Ng.loop1.water2.frame127 

   0  1 
C         52.39356       41.77686      -16.60598
C         52.09962       40.50225      -15.87213
O         52.98715       39.95734      -15.23176
H         53.45238       42.08081      -16.46650
H         52.20689       41.62834      -17.69145
H         51.73131       42.58536      -16.23265
N         50.85676       39.95584      -15.95321
C         50.48249       38.68809      -15.33656
C         50.17574       37.64298      -16.40024
O         49.69665       36.57474      -16.04805
C         49.30241       38.88269      -14.35594
C         48.00128       39.27592      -15.00494
O         46.93217       38.46418      -14.89856
O         47.89184       40.33649      -15.59756
H         50.15380       40.44475      -16.52765
H         51.32018       38.28364      -14.72681
H         49.57725       39.64357      -13.59395
H         49.14122       37.92146      -13.81946
N         50.48650       37.85864      -17.71452
C         50.23750       36.90161      -18.78103
C         51.58455       36.39558      -19.28500
O         52.40642       37.24103      -19.61386
C         49.49127       37.58689      -19.95187
C         48.27004       38.43786      -19.56483
C         47.15626       37.69123      -18.82348
C         45.98668       38.65548      -18.55839
N         44.91148       38.00548      -17.81286
H         50.96502       38.72810      -17.99011
H         49.59530       36.08461      -18.42065
H         49.19379       36.81196      -20.69116
H         50.18535       38.28810      -20.46588
H         47.85330       38.85925      -20.50658
H         48.61065       39.28884      -18.93533
H         47.54313       37.31007      -17.85470
H         46.80167       36.83339      -19.43485
H         45.58626       39.02602      -19.52913
H         46.35018       39.53249      -17.97687
H         44.54089       37.18936      -18.35064
H         45.26264       37.68805      -16.88102
H         44.13855       38.69461      -17.66440
N         51.93709       35.08146      -19.42870
C         51.12168       33.89321      -19.20001
C         49.80320       33.96032      -19.97828
O         48.75042       33.87415      -19.36036
C         50.90931       33.63934      -17.69142
C         52.18698       33.65306      -16.90229
O         52.33683       34.52457      -15.88702
O         53.08519       32.87206      -17.16114
H         52.88138       34.89943      -19.80716
H         51.69591       33.01795      -19.57908
H         50.42307       32.65053      -17.56915
H         50.24349       34.40175      -17.26041
N         49.74112       34.15443      -21.32871
C         50.90729       34.21188      -22.19525
C         50.60324       34.75190      -23.58489
O         49.49187       35.19446      -23.83761
H         48.80358       34.25682      -21.74607
H         51.36195       33.20123      -22.22989
H         51.64198       34.93178      -21.79823
N         51.57784       34.83574      -24.53786
C         52.90227       34.24515      -24.36251
C         52.80991       32.72394      -24.42618
O         51.78875       32.20112      -24.85370
C         53.92586       34.77879      -25.39547
C         53.62572       34.42113      -26.83165
O         54.41768       33.74319      -27.46629
O         52.51605       34.87722      -27.44265
H         51.35075       35.33462      -25.40905
H         53.28814       34.55791      -23.36811
H         54.92645       34.36952      -25.13229
H         53.98992       35.88526      -25.30948
N         53.84848       31.95067      -24.00722
C         53.86423       30.49905      -24.11630
C         53.94688       29.80031      -22.77566
O         54.31869       28.63568      -22.76267
H         54.68095       32.40939      -23.60675
H         54.76792       30.23540      -24.70646
H         52.98805       30.09407      -24.66731
N         53.56505       30.40956      -21.61572
C         53.68027       29.77947      -20.30201
C         52.30597       29.42113      -19.76055
O         51.39771       30.23825      -19.81940
C         54.42544       30.71471      -19.32670
C         55.83761       31.04363      -19.82035
O         54.51862       30.08745      -18.07296
H         53.16512       31.35955      -21.65502
H         54.27321       28.83978      -20.36189
H         53.84177       31.65855      -19.24130
H         54.67058       30.79849      -17.39806
H         55.80265       31.56245      -20.80084
H         56.34019       31.71403      -19.09093
H         56.43764       30.11387      -19.91971
N         52.11582       28.20868      -19.15831
C         50.84370       27.74743      -18.60588
C         50.87672       27.80368      -17.07578
O         49.87579       27.48026      -16.45294
C         50.55687       26.29993      -19.13374
C         50.73300       26.17304      -20.67099
C         49.17175       25.75666      -18.71916
C         49.78319       27.03313      -21.50488
H         52.93009       27.58494      -19.04394
H         50.02288       28.42468      -18.92881
H         51.32157       25.62342      -18.68929
H         50.58932       25.10854      -20.95937
H         51.77573       26.43796      -20.94777
H         48.35637       26.41737      -19.07933
H         49.02181       24.73868      -19.13646
H         49.07292       25.64378      -17.62432
H         49.93092       28.11020      -21.28760
H         49.99639       26.86362      -22.58120
H         48.72596       26.75679      -21.31867
N         51.96163       28.27622      -16.39551
C         51.99848       28.40645      -14.94643
C         51.75296       29.86372      -14.64850
O         52.52119       30.68873      -15.11541
C         53.35370       27.90537      -14.39964
C         53.62009       26.45115      -14.81280
O         53.35568       28.00739      -12.99957
H         52.77039       28.64625      -16.91151
H         51.18799       27.80426      -14.47860
H         54.16251       28.54560      -14.82674
H         54.30597       27.98408      -12.71170
H         52.82691       25.78040      -14.42120
H         53.65503       26.35923      -15.92000
H         54.60297       26.11886      -14.41711
N         50.62137       30.26004      -13.99979
C         50.19558       31.65254      -13.95595
C         49.85433       32.10898      -12.54963
O         48.96930       31.53401      -11.93055
C         48.98882       31.80589      -14.90965
C         48.49023       33.24672      -14.97412
O         47.93722       30.96162      -14.51375
H         49.96659       29.54158      -13.65337
H         50.99343       32.31667      -14.35569
H         49.34815       31.50493      -15.92036
H         47.42383       30.73535      -15.33297
H         47.68350       33.33942      -15.73064
H         48.08808       33.53299      -13.98806
H         49.31655       33.93639      -15.23423
N         50.49278       33.18883      -12.00931
C         50.11564       33.79146      -10.73348
C         51.17346       34.78991      -10.27147
O         51.64788       34.64596       -9.15312
C         48.68087       34.40164      -10.78666
C         48.48514       35.58285      -11.76091
C         47.02573       36.08658      -11.82786
C         46.04788       35.08946      -12.48136
N         44.69487       35.64150      -12.55026
H         51.26827       33.60891      -12.54302
H         50.08291       32.98739       -9.96260
H         48.39934       34.74501       -9.76687
H         47.98018       33.58991      -11.05480
H         48.82480       35.31540      -12.78164
H         49.10314       36.43141      -11.40274
H         47.01532       37.01378      -12.44085
H         46.67623       36.34662      -10.80525
H         46.01269       34.13919      -11.90903
H         46.38607       34.87095      -13.51499
H         44.69110       36.51984      -13.11816
H         44.06479       34.94373      -13.00951
H         44.33573       35.83796      -11.58819
N         51.62885       35.79176      -11.08427
C         52.64274       36.75812      -10.67319
C         52.10635       38.16814      -10.79627
O         51.67877       38.55850      -11.87455
C         53.93117       36.66018      -11.51706
C         54.76332       35.39819      -11.25507
C         54.29850       34.18417      -11.99097
O         54.36439       34.18558      -13.33423
O         54.01577       33.15929      -11.39130
H         51.25644       35.87113      -12.04221
H         52.94718       36.59496       -9.61605
H         54.57651       37.50133      -11.17685
H         53.74291       36.80781      -12.60408
H         54.83869       35.21281      -10.16151
H         55.79256       35.58404      -11.63173
N         52.16501       39.01607       -9.73256
C         51.75183       40.39850       -9.82539
H         50.67333       40.45920      -10.07788
H         51.92719       40.91010       -8.85484
H         52.34873       40.91816      -10.60627
H         52.55165       38.68540       -8.83538
Ca        54.58535       32.25444      -14.46089
O         55.03417       35.93287      -15.71063
H         55.80304       36.43366      -15.33936
H         54.24167       36.35011      -15.28827
O         57.33559       33.83036      -13.95898
H         58.07426       33.33262      -13.52676
H         57.58689       34.78325      -13.86318

Ca 1.0



