%chk=apoCaM-CA-Ng.loop1.water3.frame1389.chk
%nprocshared=20
%mem=10GB
%nosave
#b3lyp/svp scf=(tight,noincore,xqc) Test 
#IOP(5/87=12) Density=Current Pop=(MK,readradii) iop(6/33=2) iop(6/42=6)

apoCaM-CA-Ng.loop1.water3.frame1389 

   0  1 
C         23.69830       86.70953       70.49702
C         22.48060       86.60025       69.63224
O         22.05893       85.48994       69.33916
H         24.49393       87.25690       69.94843
H         23.44668       87.25761       71.42764
H         24.08202       85.70090       70.76309
N         21.87810       87.72787       69.15725
C         20.72901       87.69571       68.26043
C         21.15327       88.17026       66.88894
O         20.51999       89.03064       66.29284
C         19.53714       88.46602       68.87047
C         19.85498       89.89818       69.22628
O         19.77278       90.30131       70.50832
O         20.17601       90.70287       68.36692
H         22.28507       88.64402       69.40117
H         20.39435       86.65056       68.10406
H         19.23355       87.93840       69.80025
H         18.67395       88.43959       68.17026
N         22.25061       87.60580       66.31953
C         22.71736       87.93959       64.98696
C         21.67840       87.53060       63.94682
O         21.29379       88.40628       63.18437
C         24.15544       87.41039       64.74932
C         25.12111       88.14643       65.71472
C         26.60477       87.83296       65.49468
C         27.46346       88.71413       66.42472
N         28.89213       88.48290       66.22029
H         22.78116       86.90945       66.86472
H         22.82072       89.04726       64.91214
H         24.45596       87.66006       63.70841
H         24.22399       86.30978       64.87936
H         24.86205       87.91408       66.77050
H         24.99215       89.24095       65.56016
H         26.87401       88.05715       64.43998
H         26.79994       86.75806       65.69883
H         27.20568       88.50545       67.48740
H         27.24423       89.78737       66.22206
H         29.15292       88.69866       65.23076
H         29.43263       89.11598       66.85434
H         29.13244       87.49104       66.44586
N         21.07897       86.30216       63.85996
C         21.34493       85.12416       64.68387
C         20.19139       84.82316       65.63720
O         19.14839       85.45771       65.57061
C         21.74559       83.92746       63.78454
C         20.99627       83.83082       62.47032
O         19.69683       83.50026       62.35394
O         21.60403       84.08405       61.44210
H         20.32672       86.21228       63.15869
H         22.19868       85.30773       65.35901
H         21.73743       82.96410       64.33633
H         22.80370       84.12042       63.49999
N         20.39604       83.93378       66.65533
C         19.47010       83.69295       67.75855
C         18.22520       82.93402       67.37315
O         18.04499       82.62625       66.21684
H         21.31447       83.46783       66.71422
H         19.19911       84.65211       68.24774
H         19.99501       83.06629       68.51173
N         17.34864       82.53596       68.33673
C         16.14112       81.73260       68.08264
C         15.65541       81.04885       69.36360
O         16.10897       81.40197       70.44322
C         14.99149       82.63954       67.54683
C         14.93078       82.83694       66.05736
O         15.66009       82.22248       65.29877
O         13.97493       83.63560       65.54633
H         17.60820       82.76890       69.30671
H         16.39872       80.89451       67.40613
H         15.04008       83.61958       68.06962
H         13.99859       82.22690       67.80340
N         14.71588       80.05160       69.35878
C         14.12299       79.41983       68.18370
C         15.10037       78.52186       67.46359
O         15.60977       77.60250       68.08939
H         14.40030       79.69518       70.27481
H         13.66149       80.15837       67.50590
H         13.30095       78.75426       68.52558
N         15.38857       78.70475       66.14024
C         16.27603       77.81733       65.38673
C         17.55983       78.54619       65.02175
O         17.62953       79.75629       65.18068
C         15.53527       77.26129       64.14197
C         14.30091       76.44163       64.53538
O         16.39305       76.44600       63.38519
H         14.96483       79.50446       65.64435
H         16.58806       76.96315       66.02694
H         15.20156       78.13192       63.53027
H         16.11804       76.53469       62.43451
H         14.59959       75.56441       65.14826
H         13.58018       77.05823       65.11228
H         13.78604       76.07484       63.62141
N         18.65706       77.83166       64.62370
C         19.99315       78.38521       64.40258
C         20.05424       79.27730       63.18161
O         19.32031       80.24703       63.08408
C         20.55830       79.08315       65.67414
C         20.61652       78.11216       66.88437
C         21.94194       79.70853       65.40599
C         21.52343       76.88616       66.69557
H         18.56817       76.80696       64.54631
H         20.66974       77.53353       64.18869
H         19.89712       79.92692       65.96013
H         19.59150       77.75235       67.11810
H         20.98007       78.67655       67.76952
H         22.67249       78.95029       65.05763
H         21.86914       80.49306       64.62428
H         22.32612       80.19894       66.32447
H         22.57123       77.18659       66.49154
H         21.51931       76.27990       67.62438
H         21.16408       76.23132       65.87606
N         20.97541       78.99817       62.21735
C         21.13642       79.76320       60.99344
C         20.77539       78.91466       59.79062
O         20.83619       79.43774       58.68703
C         22.57089       80.33744       60.89535
C         23.67189       79.27199       60.80923
O         22.81171       81.15026       62.01574
H         21.59437       78.18471       62.34846
H         20.43609       80.62790       60.98461
H         22.62175       80.94356       59.95742
H         23.16002       82.01835       61.68643
H         23.51981       78.61819       59.92496
H         24.65925       79.77014       60.70552
H         23.70411       78.64641       61.72444
N         20.36021       77.61494       59.91887
C         19.88458       76.81687       58.79806
C         18.62971       77.48809       58.26552
O         17.57703       77.33692       58.86859
C         19.61624       75.34768       59.24515
C         20.92657       74.65292       59.66318
O         18.70448       75.33680       60.31964
H         20.33599       77.17847       60.84920
H         20.66920       76.80292       58.00871
H         19.18182       74.78817       58.38685
H         18.57852       74.39399       60.60343
H         21.64177       74.63818       58.81477
H         21.40347       75.16576       60.52487
H         20.72393       73.60220       59.96239
N         18.71559       78.36733       57.22097
C         17.62899       79.22983       56.75866
C         17.16586       80.20310       57.83460
O         16.91542       79.80473       58.96236
C         16.44400       78.44180       56.18961
C         16.88606       77.58364       54.99462
C         15.71415       76.93225       54.25257
C         14.89356       75.98318       55.13553
N         13.86125       75.31203       54.34876
H         19.62430       78.47616       56.74570
H         18.01549       79.84239       55.91270
H         15.68831       79.17764       55.83349
H         15.97786       77.81763       56.97796
H         17.59709       76.80130       55.33795
H         17.41356       78.23208       54.25969
H         16.13826       76.35900       53.39983
H         15.04914       77.72374       53.84109
H         14.40498       76.55475       55.95412
H         15.56535       75.21993       55.58623
H         13.22352       76.01755       53.91313
H         14.30575       74.72926       53.60252
H         13.30350       74.69048       54.97731
N         16.94883       81.50957       57.51966
C         16.46779       82.47308       58.50101
C         17.54278       82.76817       59.53374
O         17.27268       82.54117       60.70362
C         15.93858       83.76986       57.84958
C         14.74665       83.48258       56.92115
C         14.19776       84.75058       56.33807
O         12.92173       85.10645       56.57972
O         14.89898       85.45799       55.63230
H         17.07523       81.80696       56.54109
H         15.58438       82.03469       59.02318
H         16.72749       84.30055       57.28393
H         15.58919       84.44797       58.66064
H         13.94556       82.97201       57.49987
H         15.05201       82.81648       56.08734
N         18.78074       83.26972       59.24157
C         19.32046       83.56416       57.93186
H         20.25086       82.97606       57.78892
H         18.64567       83.31631       57.10212
H         19.57001       84.64434       57.87621
H         19.42151       83.45341       60.01999
Ca        18.07024       82.72557       63.66064
O         14.70748       82.72917       62.28221
H         14.03141       82.35729       61.66198
H         14.19528       83.33558       62.87281
O         16.16473       80.08694       62.05420
H         16.85582       79.44661       61.75017
H         15.37039       79.87708       61.50119
O         16.42687       85.14631       63.79444
H         16.25500       85.05411       64.76475
H         17.18147       85.78413       63.73786

Ca 1.0



