%chk=apoCaM-CA-Ng.loop2.water5.frame461.chk
%nprocshared=20
%mem=10GB
%nosave
#b3lyp/svp scf=(tight,noincore,xqc) Test 
#IOP(5/87=12) Density=Current Pop=(MK,readradii) iop(6/33=2) iop(6/42=6)

apoCaM-CA-Ng.loop2.water5.frame461 

   -2  1 
C         44.88216       68.10153       69.58283
C         44.93299       69.08513       68.45409
O         45.46105       68.75946       67.40017
H         45.42832       68.51905       70.45572
H         43.82764       67.91020       69.86836
H         45.36136       67.14268       69.29137
N         44.42215       70.33521       68.62600
C         44.50349       71.38151       67.61949
C         45.41669       72.45469       68.17238
O         45.06393       73.09162       69.15633
C         43.08325       71.90025       67.29917
C         43.01902       72.97426       66.24367
O         44.02675       73.39053       65.69429
O         41.82038       73.48155       65.89717
H         43.99910       70.57214       69.53649
H         44.94386       70.97883       66.68069
H         42.61778       72.29560       68.22840
H         42.46827       71.04413       66.94532
N         46.65264       72.65217       67.62817
C         47.61855       73.59147       68.18954
C         47.96767       73.22587       69.62347
O         47.90252       72.05708       69.98092
C         48.89996       73.61640       67.35303
H         46.92556       72.09180       66.80543
H         47.16875       74.60888       68.16419
H         49.38081       72.61402       67.35054
H         48.66523       73.90386       66.30633
H         49.61565       74.35703       67.76982
N         48.28462       74.20727       70.51465
C         48.51269       73.97088       71.93506
C         49.83079       74.57832       72.37752
O         50.01646       75.77433       72.19624
C         47.35695       74.61333       72.72036
C         47.52311       74.42837       74.20190
O         47.60573       75.50245       75.00941
O         47.60272       73.30784       74.67736
H         48.30069       75.18368       70.18098
H         48.50555       72.88140       72.16390
H         46.39905       74.14737       72.40312
H         47.30378       75.70052       72.48945
N         50.77303       73.82174       73.01262
C         52.01416       74.38010       73.52668
C         53.18043       73.77773       72.80324
O         53.22035       73.86985       71.58387
H         50.60238       72.81397       73.15555
H         52.07527       74.19423       74.62168
H         52.06114       75.47836       73.37546
N         54.19036       73.16270       73.48143
C         55.32148       72.55842       72.78315
C         54.85640       71.34496       71.99543
O         53.69460       70.97053       72.10302
C         56.41865       72.11808       73.78340
C         56.93240       73.26462       74.61762
N         56.87825       73.21221       75.96942
O         57.41638       74.24328       74.06860
H         54.15877       73.13967       74.51306
H         55.76253       73.31216       72.09371
H         57.28659       71.70318       73.22900
H         56.02183       71.31442       74.44234
H         56.48867       72.38953       76.45269
H         57.23823       73.99269       76.53816
N         55.73779       70.63062       71.24063
C         55.39060       69.34445       70.66142
C         56.04584       68.25918       71.47576
O         56.85253       68.56615       72.34591
H         56.71915       70.94052       71.17566
H         55.67197       69.29586       69.58806
H         54.29544       69.16831       70.72487
N         55.66454       66.96254       71.31925
C         56.14836       65.90010       72.19748
C         55.07007       65.46054       73.18851
O         55.42049       64.84419       74.18395
C         56.76055       64.73078       71.38919
C         55.75293       64.01629       70.47383
O         57.86491       65.17803       70.64062
H         54.94869       66.74849       70.60869
H         56.96233       66.30037       72.84117
H         57.13817       63.97791       72.11412
H         57.53205       65.80408       69.94488
H         56.25505       63.17111       69.95752
H         54.90571       63.61293       71.06499
H         55.35455       64.70087       69.69652
N         53.74873       65.75442       72.99770
C         52.68640       65.47144       73.96634
C         51.78556       66.69958       74.11500
O         52.05154       67.71001       73.47715
C         51.92955       64.15808       73.57814
C         51.42323       64.07872       72.11485
C         52.84666       62.95000       73.84387
C         50.31204       65.06474       71.77283
H         53.45717       66.18834       72.11212
H         53.11412       65.30449       74.97989
H         51.06519       64.01860       74.26145
H         50.99867       63.06392       71.94870
H         52.26914       64.20455       71.40502
H         53.74180       62.96685       73.18973
H         53.17733       62.94381       74.90554
H         52.29904       62.00067       73.66381
H         49.44574       64.90812       72.45004
H         50.66010       66.11181       71.83740
H         49.97896       64.88490       70.72863
N         50.68630       66.68118       74.93077
C         49.77775       67.81843       75.05594
C         49.62910       68.21994       76.52035
O         48.52949       68.24673       77.05152
C         48.45177       67.46422       74.35398
C         47.49787       68.62252       74.29498
O         46.26789       68.50557       74.82733
O         47.82275       69.66230       73.74257
H         50.45246       65.82080       75.44650
H         50.19111       68.70296       74.52285
H         47.97353       66.59703       74.85738
H         48.67768       67.17424       73.30482
N         50.74039       68.57123       77.22078
C         50.75450       69.07331       78.59842
C         50.14453       68.05300       79.56104
O         50.53688       66.89669       79.48245
C         52.22990       69.37485       78.96614
C         52.44940       70.22982       80.18894
C         51.96219       71.54954       80.22218
C         53.20979       69.75332       81.27000
C         52.23591       72.37695       81.31506
C         53.48136       70.58555       82.36168
C         52.99791       71.89672       82.38253
H         51.63882       68.50320       76.71692
H         50.19190       70.02755       78.61879
H         52.68841       69.95539       78.13550
H         52.78549       68.41344       79.03801
H         51.38977       71.94648       79.39324
H         53.60920       68.74716       81.26113
H         51.86912       73.39544       81.32754
H         54.07872       70.21870       83.18626
H         53.22015       72.54328       83.22185
N         49.20083       68.37611       80.50679
C         48.64073       67.40359       81.43543
C         47.44053       66.66161       80.85632
O         46.96240       65.74458       81.51029
C         48.20502       68.27834       82.61750
C         47.69709       69.52064       81.90466
C         48.76766       69.72339       80.83034
H         49.40440       66.67031       81.77699
H         47.48874       67.80435       83.32432
H         49.11294       68.57754       83.18889
H         46.73822       69.25204       81.40693
H         47.51513       70.40725       82.54878
H         48.33909       70.27485       79.96939
H         49.63811       70.27141       81.25040
N         46.84344       67.04892       79.69186
C         45.62736       66.41963       79.19263
C         45.93617       65.05407       78.61965
O         45.38646       64.07331       79.10131
C         44.92162       67.30785       78.14456
C         44.48711       68.65132       78.76126
C         43.67228       69.46690       77.80408
O         44.08504       70.69566       77.44451
O         42.61221       69.03720       77.37748
H         47.20778       67.87069       79.19312
H         44.90224       66.31155       80.03252
H         44.01166       66.76909       77.79729
H         45.57820       67.48896       77.26648
H         45.38005       69.23712       79.06692
H         43.86541       68.46638       79.66330
N         46.80773       64.92127       77.58005
C         47.13213       63.65000       76.96457
H         48.22064       63.45863       77.06503
H         46.58139       62.80222       77.42418
H         46.87230       63.68914       75.88582
H         47.26818       65.76099       77.19978
Ca        45.55097       71.35246       75.04726
O         45.34166       71.06662       72.13359
H         45.74020       71.78249       71.57956
H         44.38809       71.04929       71.86946
O         45.35616       73.49518       77.27084
H         46.04794       73.49780       77.97874
H         45.76574       73.99741       76.52345
O         43.11757       69.63216       74.05968
H         43.14938       68.83905       73.46854
H         43.58016       69.34035       74.88392
O         43.52729       73.22857       73.98041
H         42.72186       72.69908       74.20710
H         43.65338       73.83270       74.75470
O         47.45664       71.11581       77.52972
H         48.32379       71.54895       77.72966
H         47.61653       70.62712       76.68479

Ca 1.0



