%chk=apoCaM-CA-Ng.loop1.water3.frame37.chk
%nprocshared=20
%mem=10GB
%nosave
#b3lyp/svp scf=(tight,noincore,xqc) Test 
#IOP(5/87=12) Density=Current Pop=(MK,readradii) iop(6/33=2) iop(6/42=6)

apoCaM-CA-Ng.loop1.water3.frame37 

   0  1 
C         73.18562       62.76457       69.39482
C         72.37645       62.78530       70.65863
O         72.11452       63.85696       71.18535
H         74.12106       62.19016       69.56464
H         72.60454       62.27839       68.58327
H         73.45306       63.79491       69.07771
N         71.95170       61.61290       71.20434
C         71.18013       61.52136       72.44402
C         71.92923       60.76351       73.54457
O         71.38756       60.61487       74.63022
C         69.80505       60.87828       72.14434
C         69.84978       59.44654       71.66602
O         68.80908       58.87333       71.38741
O         71.01335       58.78258       71.54947
H         72.19505       60.74387       70.70554
H         70.98586       62.53851       72.83984
H         69.29577       61.48943       71.36751
H         69.18536       60.91188       73.06293
N         73.16471       60.23449       73.32261
C         73.91150       59.42543       74.28246
C         74.53382       60.29531       75.37917
O         75.09640       61.31852       75.01471
C         75.03897       58.67993       73.52165
C         74.53925       57.76396       72.37125
C         73.58278       56.65528       72.84585
C         73.26928       55.60156       71.76789
N         72.45478       56.12754       70.67409
H         73.58915       60.36487       72.39629
H         73.25435       58.65013       74.70046
H         75.61680       58.05812       74.23527
H         75.74410       59.42270       73.08675
H         75.43978       57.28948       71.92489
H         74.04952       58.36026       71.57591
H         72.63211       57.07817       73.23304
H         74.08341       56.12986       73.67154
H         72.70479       54.77310       72.24717
H         74.21758       55.18018       71.36837
H         72.93492       56.91884       70.19105
H         72.29026       55.36310       69.98011
H         71.52626       56.43035       71.04394
N         74.59157       59.97457       76.71802
C         74.08706       58.76951       77.38227
C         74.65953       57.51459       76.73680
O         73.91301       56.76048       76.13219
C         72.55097       58.79604       77.50513
C         72.11956       59.94852       78.37404
O         71.37762       60.80914       77.93383
O         72.54956       60.03220       79.64935
H         75.10007       60.63495       77.32799
H         74.44096       58.75876       78.43770
H         72.20874       57.86244       78.00185
H         72.06049       58.85838       76.51653
N         75.98955       57.20999       76.80987
C         76.89988       57.91340       77.69979
C         78.35566       57.50447       77.53738
O         78.71927       56.99559       76.48630
H         76.33326       56.38949       76.28756
H         76.54208       57.69516       78.72293
H         76.86373       59.00927       77.54573
N         79.28776       57.75004       78.50823
C         78.94113       58.22224       79.84868
C         78.13778       57.14987       80.58033
O         77.40529       57.48151       81.50308
C         80.20172       58.56170       80.67703
C         81.05269       59.65697       80.08183
O         80.73963       60.21288       79.04013
O         82.17950       60.03273       80.71606
H         80.27634       57.53678       78.30037
H         78.33212       59.14901       79.75197
H         80.82767       57.64904       80.78461
H         79.89243       58.89477       81.69208
N         78.24765       55.83672       80.22040
C         77.48825       54.74565       80.80478
C         76.90454       53.85255       79.72634
O         77.01142       54.16356       78.54587
H         78.94089       55.57152       79.50482
H         76.69106       55.10426       81.49255
H         78.19816       54.12167       81.38619
N         76.33087       52.66692       80.07243
C         75.86369       51.69256       79.08742
C         74.68996       52.25901       78.31517
O         73.71437       52.66550       78.93231
C         75.47053       50.34849       79.74830
C         76.66361       49.70966       80.48015
O         75.03475       49.46656       78.74362
H         76.27674       52.43555       81.07595
H         76.69950       51.46071       78.38808
H         74.64230       50.53096       80.47152
H         74.57220       48.71389       79.19617
H         76.35946       48.73660       80.91975
H         77.50202       49.53046       79.77307
H         77.02889       50.34957       81.30813
N         74.71864       52.30906       76.95217
C         73.63906       52.89388       76.16345
C         72.31285       52.20534       76.45399
O         72.24210       50.98532       76.40031
C         73.94463       52.94139       74.63149
C         74.00647       51.55636       73.93482
C         75.23695       53.74601       74.37532
C         74.02640       51.66140       72.40573
H         75.54522       51.93007       76.46853
H         73.54379       53.96003       76.46929
H         73.09338       53.50238       74.18634
H         73.09709       50.97131       74.16817
H         74.89116       50.98500       74.28848
H         75.37181       53.96525       73.29820
H         75.20268       54.71272       74.91209
H         76.13608       53.20311       74.72869
H         74.02994       50.64282       71.96414
H         73.11429       52.18935       72.05053
H         74.92319       52.19422       72.03403
N         71.21281       52.95040       76.76316
C         69.90430       52.37295       77.06459
C         68.90209       52.62369       75.94782
O         68.03174       51.78594       75.75826
C         69.37678       52.85640       78.43745
C         69.12423       54.36968       78.49797
O         70.29354       52.51645       79.44506
H         71.31089       53.97522       76.75870
H         69.99633       51.26602       77.13457
H         68.39778       52.36260       78.64322
H         70.18248       51.54554       79.62022
H         70.06052       54.94515       78.34687
H         68.38142       54.67844       77.73306
H         68.72076       54.63956       79.49670
N         68.98222       53.72726       75.14629
C         68.12932       53.99777       73.98944
C         66.66071       54.17195       74.36954
O         66.27433       53.88205       75.49313
C         68.29105       52.89370       72.90226
C         69.75919       52.60155       72.57334
O         67.63979       53.28648       71.72115
H         69.71602       54.42494       75.33080
H         68.47881       54.96536       73.56092
H         67.83466       51.95310       73.28931
H         67.31128       52.46321       71.27425
H         70.29970       52.23000       73.46944
H         69.81185       51.80728       71.79815
H         70.26561       53.51246       72.19240
N         65.78709       54.67542       73.45254
C         64.34874       54.81494       73.67060
C         63.92149       56.27155       73.80907
O         62.77250       56.49949       74.16290
C         63.55575       54.09966       72.54305
C         64.03853       54.47643       71.12274
C         63.11380       54.01998       69.98598
C         62.80888       52.51548       69.97844
N         61.98513       52.16844       68.81933
H         66.17491       55.00551       72.55881
H         64.06481       54.34792       74.63953
H         62.47701       54.34024       72.66248
H         63.67396       53.00038       72.65766
H         65.04022       54.02515       70.95287
H         64.13093       55.58044       71.03706
H         63.60745       54.29355       69.02642
H         62.15702       54.57931       70.05534
H         62.25665       52.24745       70.90539
H         63.75427       51.93015       69.94602
H         62.52000       52.34076       67.93689
H         61.72797       51.15643       68.86727
H         61.10826       52.73932       68.81315
N         64.78104       57.30392       73.58297
C         64.45256       58.70480       73.81953
C         64.41721       59.45990       72.50586
O         65.35619       59.37118       71.72659
C         65.44433       59.33533       74.82918
C         66.92755       59.22134       74.43341
C         67.81689       59.93700       75.40532
O         67.70434       61.27000       75.55717
O         68.67649       59.32637       76.02079
H         65.72034       57.09879       73.22279
H         63.44877       58.80608       74.28955
H         65.31206       58.83702       75.81515
H         65.17005       60.40714       74.95158
H         67.09652       59.67345       73.43806
H         67.22699       58.15290       74.39956
N         63.34535       60.24256       72.19913
C         63.25626       60.97529       70.95590
H         62.32789       61.58553       70.94272
H         64.12847       61.65481       70.84849
H         63.22853       60.26476       70.10334
H         62.57268       60.34148       72.87543
Ca        69.18318       62.42844       76.81336
O         72.34883       62.99938       76.02881
H         72.09040       63.40597       75.16378
H         72.44228       63.76609       76.64743
O         69.03467       63.64701       74.04016
H         68.05922       63.65253       74.20625
H         69.35736       64.51133       74.39852
O         68.43393       60.67526       79.03325
H         68.80720       59.92683       79.56246
H         67.45395       60.53693       79.05528

Ca 1.0



