%chk=apoCaM-CA-Ng.loop2.water2.frame873.chk
%nprocshared=20
%mem=10GB
%nosave
#b3lyp/svp scf=(tight,noincore,xqc) Test 
#IOP(5/87=12) Density=Current Pop=(MK,readradii) iop(6/33=2) iop(6/42=6)

apoCaM-CA-Ng.loop2.water2.frame873 

   -2  1 
C         26.47674       19.00104       -8.30140
C         25.01752       19.14671       -7.98286
O         24.21422       18.44048       -8.57594
H         27.09708       19.69536       -7.69686
H         26.80011       17.96053       -8.08888
H         26.64565       19.22092       -9.37667
N         24.59199       20.05390       -7.05655
C         23.17907       20.24347       -6.73812
C         22.55759       19.01320       -6.06985
O         21.34208       18.98320       -5.93677
C         23.01075       21.49062       -5.84014
C         21.57125       21.85296       -5.60074
O         21.08020       21.87515       -4.34706
O         20.84418       22.13749       -6.53933
H         25.29484       20.65478       -6.59789
H         22.65349       20.43667       -7.70066
H         23.49822       22.36200       -6.32978
H         23.51979       21.31190       -4.86723
N         23.31736       17.97335       -5.61140
C         22.76084       16.78114       -4.98184
C         23.29809       16.67347       -3.56385
O         24.51067       16.58012       -3.42609
C         23.17332       15.55173       -5.79665
H         24.34343       18.01993       -5.69114
H         21.65590       16.81128       -4.98780
H         22.78661       15.63982       -6.83425
H         24.28141       15.46537       -5.84576
H         22.76210       14.62791       -5.33834
N         22.52275       16.69783       -2.43706
C         21.06198       16.82352       -2.38325
C         20.61842       17.48860       -1.07806
O         21.44490       17.77831       -0.22481
C         20.38361       15.43941       -2.56333
C         20.78301       14.50330       -1.45829
O         22.08594       14.23739       -1.30002
O         19.95669       14.02079       -0.70122
H         23.03437       16.63783       -1.54345
H         20.72657       17.51881       -3.17949
H         20.68957       14.99386       -3.53354
H         19.27819       15.55110       -2.57638
N         19.31076       17.81488       -0.88984
C         18.82251       18.53725        0.27401
C         17.60222       17.86282        0.85061
O         16.52261       18.41018        0.67646
H         18.63568       17.61383       -1.64350
H         18.51039       19.53983       -0.09219
H         19.59653       18.70633        1.05068
N         17.62529       16.68114        1.52986
C         18.81483       15.93436        1.92955
C         19.56469       16.70916        3.00694
O         18.94162       17.09331        3.98821
C         18.35748       14.56101        2.48557
C         19.45593       13.57030        2.77417
N         19.13824       12.36981        3.31018
O         20.62015       13.82651        2.51304
H         16.70630       16.29706        1.80563
H         19.44921       15.74369        1.04141
H         17.69574       14.07503        1.73554
H         17.76662       14.72408        3.41356
H         18.15937       12.13335        3.52679
H         19.86567       11.67456        3.51734
N         20.90292       16.95504        2.90733
C         21.65139       17.73538        3.88661
C         22.64551       16.91409        4.68821
O         23.35736       17.50085        5.48784
H         21.42080       16.56887        2.10490
H         20.97392       18.21878        4.62406
H         22.18547       18.54648        3.34769
N         22.70822       15.55522        4.58049
C         23.56738       14.70875        5.40653
C         24.46162       13.83090        4.53762
O         24.37590       13.87340        3.32299
C         22.67159       13.83636        6.32927
C         21.91017       14.70215        7.34228
O         21.76755       13.09439        5.55006
H         22.07815       15.07865        3.93048
H         24.23707       15.32113        6.04861
H         23.30943       13.13900        6.91557
H         21.31039       12.45795        6.15935
H         21.29995       14.05557        8.00860
H         22.62950       15.26484        7.97536
H         21.23515       15.41930        6.83113
N         25.33811       12.97685        5.14106
C         26.18472       12.01562        4.44311
C         25.64584       10.64157        4.78585
O         25.58382       10.29850        5.95579
C         27.66569       12.23302        4.87398
C         28.61222       11.04045        4.57637
C         28.19794       13.53763        4.25355
C         28.72186       10.63112        3.11009
H         25.37781       12.96558        6.16960
H         26.11611       12.13582        3.34128
H         27.69191       12.34526        5.98132
H         28.26580       10.15685        5.15501
H         29.62926       11.29004        4.95181
H         28.19357       13.47815        3.14401
H         27.56485       14.40008        4.55056
H         29.23563       13.73638        4.59441
H         29.13161       11.45292        2.49107
H         29.40692        9.75954        3.03277
H         27.73402       10.32994        2.71719
N         25.18324        9.82779        3.78776
C         24.48637        8.57041        4.04393
C         25.22108        7.36616        3.48518
O         24.83662        6.25578        3.84388
C         23.08396        8.64574        3.41509
C         22.35362        9.88011        3.85527
O         22.05019       10.06583        5.15318
O         22.06198       10.73545        3.03478
H         25.25953       10.14229        2.81296
H         24.38917        8.41774        5.14064
H         22.48492        7.74656        3.67521
H         23.19510        8.68029        2.30725
N         26.24416        7.46936        2.58906
C         26.97135        6.30829        2.09358
C         27.89857        6.68038        0.93373
O         28.79829        7.49019        1.14396
C         27.82554        5.70665        3.23539
C         28.69532        4.58071        2.73159
C         30.08764        4.75711        2.65639
C         28.12989        3.37068        2.29830
C         30.89986        3.74448        2.14380
C         28.94841        2.35522        1.79318
C         30.33145        2.54392        1.71228
H         26.50506        8.39625        2.22174
H         26.23491        5.55158        1.75283
H         27.20160        5.34759        4.08049
H         28.46834        6.52499        3.63056
H         30.54279        5.68750        2.97369
H         27.05896        3.21716        2.34686
H         31.96930        3.89545        2.07569
H         28.51054        1.42438        1.45782
H         30.96342        1.76192        1.31296
N         27.80121        6.09498       -0.30206
C         28.77314        6.27098       -1.37437
C         28.63329        7.59317       -2.11831
O         29.34316        7.78798       -3.09338
C         28.49110        5.07103       -2.28586
C         26.98888        4.94162       -2.17587
C         26.77703        5.13225       -0.67782
H         29.81876        6.17788       -1.00416
H         28.90007        5.14568       -3.31565
H         28.92453        4.16183       -1.80724
H         26.54120        5.80831       -2.71413
H         26.55189        4.00558       -2.58375
H         25.74394        5.50471       -0.50561
H         26.95267        4.18994       -0.11784
N         27.74935        8.54748       -1.71740
C         27.54815        9.81551       -2.41536
C         28.77880       10.71200       -2.49923
O         28.69183       11.72200       -3.18552
C         26.38201       10.57061       -1.75276
C         26.66107       10.97021       -0.28282
C         25.38426       11.44035        0.32709
O         24.41831       10.69404        0.35761
O         25.25096       12.69586        0.77072
H         27.14754        8.34141       -0.91278
H         27.24725        9.56988       -3.45840
H         25.50489        9.88624       -1.79334
H         26.11859       11.47972       -2.33854
H         27.43778       11.76530       -0.24602
H         27.01528       10.11580        0.32520
N         29.94605       10.43038       -1.85100
C         31.13196       11.25761       -1.96061
H         31.96543       10.64848       -2.36931
H         30.98511       12.13090       -2.63124
H         31.41593       11.63185       -0.95581
H         30.01840        9.60108       -1.24697
Ca        23.14863       13.37026        0.45687
O         24.04841       16.08798        1.46284
H         23.66530       16.73135        0.81712
H         24.77815       15.64185        0.96344
O         21.60973       10.54626       -0.59950
H         22.03571        9.88631       -1.20288
H         21.19251       11.20620       -1.20837

Ca 1.0



