%chk=apoCaM-CA-Ng.loop4.water5.frame942.chk
%nprocshared=20
%mem=10GB
%nosave
#b3lyp/svp scf=(tight,noincore,xqc) Test 
#IOP(5/87=12) Density=Current Pop=(MK,readradii) iop(6/33=2) iop(6/42=6)

apoCaM-CA-Ng.loop4.water5.frame942 

   -3  1 
C        -14.92879       20.87968       83.68669
C        -16.09952       21.57268       83.05718
O        -16.39041       21.33380       81.89443
H        -14.18823       21.63243       84.02906
H        -15.27800       20.29153       84.56245
H        -14.44213       20.18858       82.96722
N        -16.83803       22.43924       83.80101
C        -18.03846       23.12446       83.33980
C        -19.10858       22.12479       82.93913
O        -19.70786       22.27399       81.88222
C        -17.74172       24.12935       82.20377
C        -16.72848       25.15596       82.59865
O        -15.71353       25.28550       81.94037
O        -16.94797       25.96414       83.65216
H        -16.55657       22.59936       84.78124
H        -18.44299       23.69742       84.20461
H        -18.67515       24.66780       81.93273
H        -17.38439       23.58603       81.30212
N        -19.40004       21.06905       83.75284
C        -20.47805       20.12753       83.47763
C        -21.37845       20.13684       84.70657
O        -20.93046       19.63986       85.73153
C        -19.92474       18.68647       83.20760
C        -18.80849       18.68904       82.12919
C        -21.08256       17.75007       82.80886
C        -18.18971       17.31595       81.85503
H        -18.84495       20.93631       84.61259
H        -21.02743       20.45099       82.57180
H        -19.46127       18.30266       84.14336
H        -17.98522       19.34628       82.47467
H        -19.19165       19.08100       81.17408
H        -21.52940       18.07617       81.84489
H        -20.73678       16.70263       82.70502
H        -21.87338       17.74573       83.58680
H        -17.35941       17.42687       81.12513
H        -17.78416       16.87673       82.79023
H        -18.92911       16.62211       81.40605
N        -22.60829       20.72496       84.76993
C        -23.26204       21.47851       83.69979
C        -24.26138       22.48274       84.29259
O        -24.63960       22.35262       85.44912
C        -23.95140       20.47793       82.74642
C        -24.74255       21.10616       81.64001
O        -26.06249       20.85869       81.55521
O        -24.20274       21.81513       80.80645
H        -23.05608       20.69753       85.69828
H        -22.49407       22.09463       83.18141
H        -24.64464       19.85161       83.34989
H        -23.19984       19.80371       82.29242
N        -24.66938       23.56840       83.57160
C        -25.55227       24.59316       84.12065
C        -26.79233       24.84548       83.29245
O        -27.57882       25.69097       83.69523
H        -24.28862       23.71097       82.62403
H        -24.98682       25.54862       84.17262
H        -25.87874       24.33955       85.15037
N        -27.01446       24.21516       82.10556
C        -28.11873       24.54968       81.22112
C        -28.88957       23.31644       80.77113
O        -30.09459       23.28545       80.98353
C        -27.60188       25.43720       80.05507
C        -26.21832       25.12378       79.52382
O        -25.95802       24.06602       78.98369
O        -25.24155       26.04230       79.65282
H        -26.32368       23.54331       81.75065
H        -28.87075       25.18965       81.73829
H        -27.51382       26.46651       80.46795
H        -28.35679       25.48449       79.23976
N        -28.29188       22.29554       80.09700
C        -29.03573       21.20994       79.47047
C        -28.96985       21.32343       77.95644
O        -29.62769       20.54611       77.28066
H        -27.27678       22.32062       79.94904
H        -30.11097       21.25343       79.74771
H        -28.64060       20.22934       79.81255
N        -28.21638       22.29426       77.35485
C        -28.16880       22.58979       75.93480
C        -27.61419       21.44487       75.10432
O        -27.74080       21.47372       73.88976
C        -29.51336       23.18009       75.46485
C        -29.92653       24.33284       76.41499
C        -31.13311       25.11451       75.97851
N        -31.60623       26.10037       76.77682
O        -31.68491       24.87555       74.91495
H        -27.65883       22.92821       77.92272
H        -27.43873       23.41943       75.78960
H        -30.31153       22.40870       75.44985
H        -29.37407       23.57564       74.43452
H        -29.08477       25.05254       76.52256
H        -30.15031       23.90744       77.41794
H        -31.15411       26.30530       77.68140
H        -32.42826       26.65526       76.49851
N        -26.86711       20.47038       75.69984
C        -26.16453       19.41356       74.98027
C        -24.65290       19.53319       75.17597
O        -23.93470       18.70418       74.62614
C        -26.67346       18.02049       75.45781
C        -26.42240       17.76479       76.95894
C        -28.16646       17.85326       75.14584
H        -26.74199       20.49581       76.71905
H        -26.35230       19.49356       73.88740
H        -26.12584       17.23709       74.88795
H        -26.75428       16.74084       77.23170
H        -25.34152       17.84401       77.19807
H        -26.98276       18.47735       77.59924
H        -28.51040       16.83929       75.44086
H        -28.77337       18.60218       75.69530
H        -28.34567       17.97904       74.05731
N        -24.09553       20.49125       75.97654
C        -22.69085       20.50035       76.35240
C        -22.14087       21.92454       76.44577
O        -22.90300       22.88517       76.45926
C        -22.61121       19.77678       77.71416
C        -21.25813       19.81204       78.36124
N        -21.09167       20.47293       79.52897
O        -20.30637       19.26053       77.82896
H        -24.70285       21.15179       76.48128
H        -22.08480       19.94980       75.59642
H        -22.92977       18.71821       77.59066
H        -23.34312       20.26493       78.39428
H        -21.88326       20.94089       79.99263
H        -20.16523       20.54281       79.96124
N        -20.79459       22.12214       76.47825
C        -20.15374       23.42814       76.58473
C        -18.68290       23.27991       76.25447
O        -18.01376       22.48076       76.90134
C        -20.28087       24.01308       78.01160
C        -19.63303       25.38131       78.05984
C        -20.22006       26.45840       77.37591
C        -18.42386       25.58497       78.74841
C        -19.60952       27.71514       77.37665
C        -17.80894       26.84177       78.74008
C        -18.39776       27.90982       78.05441
O        -17.79056       29.11380       78.04900
H        -20.19196       21.29209       76.36078
H        -20.62045       24.11786       75.84729
H        -19.77478       23.31818       78.72006
H        -21.34003       24.09768       78.33448
H        -21.15111       26.32267       76.84024
H        -17.94320       24.76842       79.26931
H        -20.07608       28.53402       76.84376
H        -16.86981       26.98446       79.25984
H        -18.16142       29.87459       77.57893
N        -18.11024       24.02376       75.26579
C        -16.72091       23.85537       74.87138
C        -15.88540       25.10405       75.16200
O        -16.08943       26.10295       74.48860
C        -16.61016       23.43565       73.37916
C        -17.39069       24.32923       72.38772
C        -17.06664       23.98565       70.96311
O        -16.55034       24.92804       70.14968
O        -17.27392       22.86345       70.53109
H        -18.68229       24.72953       74.77771
H        -16.30141       23.01742       75.43159
H        -17.00102       22.40042       73.26298
H        -15.53037       23.41984       73.11016
H        -17.14789       25.39781       72.52569
H        -18.48293       24.20042       72.54810
N        -14.90007       25.17128       76.11610
C        -14.62864       24.18440       77.16945
C        -14.24491       22.81227       76.65041
O        -13.88467       22.66103       75.49047
C        -13.48080       24.66494       78.09754
C        -13.78661       25.95471       78.87584
C        -12.54806       26.46455       79.56934
O        -12.41437       26.47698       80.91009
O        -11.62710       26.89477       78.89429
H        -14.35760       26.04790       76.13740
H        -15.56604       24.07257       77.75909
H        -12.57571       24.80809       77.46635
H        -13.25069       23.88378       78.85528
H        -14.60401       25.75496       79.59720
H        -14.12298       26.77092       78.20241
N        -14.37060       21.74072       77.48253
C        -14.11856       20.38423       77.05468
H        -13.06133       20.27250       76.73971
H        -14.32265       19.68354       77.89336
H        -14.79457       20.12434       76.21175
H        -14.69826       21.88874       78.44980
Ca       -13.11296       24.86514       82.32555
O        -10.24438       24.25785       81.10161
H         -9.84926       23.36693       80.92783
H         -9.49978       24.89419       80.95646
O        -10.80151       24.19359       84.64530
H         -9.93581       24.56244       84.33700
H        -10.62009       23.86943       85.56321
O        -13.65315       26.91948       84.47070
H        -13.44520       26.68249       85.40912
H        -14.61753       27.14104       84.47662
O        -13.12453       22.06198       81.30970
H        -13.93475       22.41134       80.86027
H        -12.43147       22.05030       80.60356
O        -10.56043       27.14819       83.03055
H        -10.76225       27.88193       82.39699
H        -11.03150       27.40435       83.86238

Ca 1.0



