%chk=apoCaM-CA-Ng.loop3.water2.frame598.chk
%nprocshared=20
%mem=10GB
%nosave
#b3lyp/svp scf=(tight,noincore,xqc) Test 
#IOP(5/87=12) Density=Current Pop=(MK,readradii) iop(6/33=2) iop(6/42=6)

apoCaM-CA-Ng.loop3.water2.frame598 

   0  1 
C         54.88615      117.15098       68.84221
C         55.49237      118.43591       68.36768
O         55.14184      118.92101       67.30151
H         54.13604      116.77254       68.11828
H         55.68576      116.39216       68.97401
H         54.38803      117.32159       69.82124
N         56.40831      119.05951       69.14999
C         57.02034      120.33495       68.81339
C         57.91803      120.18183       67.58132
O         58.82623      119.36298       67.60404
C         57.78833      120.83124       70.05651
C         58.27801      122.23196       69.96634
O         58.91808      122.70429       70.89209
O         58.16784      122.91649       68.82578
H         56.64386      118.61797       70.05375
H         56.20656      121.07208       68.62361
H         58.65737      120.16270       70.24567
H         57.11066      120.79738       70.93200
N         57.69912      120.93234       66.46213
C         58.46497      120.80159       65.21741
C         59.95927      121.03294       65.41117
O         60.74699      120.27809       64.85802
C         57.90249      121.74867       64.11912
C         58.13255      123.24123       64.41022
C         57.42401      124.15990       63.40908
C         57.68871      125.63266       63.76314
N         56.93707      126.53877       62.90034
H         56.92393      121.61172       66.48810
H         58.31692      119.76984       64.82393
H         56.81334      121.54793       64.01921
H         58.37867      121.50991       63.14103
H         59.22081      123.44372       64.36185
H         57.75427      123.48406       65.42520
H         56.33186      123.96274       63.46004
H         57.78191      123.95552       62.37610
H         58.77193      125.85090       63.65394
H         57.39319      125.81847       64.81892
H         55.91199      126.35780       62.99951
H         57.13462      127.52334       63.19400
H         57.23136      126.41372       61.90527
N         60.41291      122.07521       66.16634
C         61.82014      122.44121       66.30455
C         62.35580      122.18842       67.70903
O         63.53653      122.42438       67.92764
C         62.03003      123.88416       65.75924
C         61.09903      124.96030       66.27646
O         61.18850      125.43195       67.52238
O         60.23780      125.41644       65.54847
H         59.72096      122.65284       66.66316
H         62.45358      121.78583       65.66522
H         61.83447      123.80912       64.66856
H         63.08336      124.21179       65.88457
N         61.59005      121.60685       68.67907
C         62.10818      121.17045       69.96607
C         62.54632      122.26741       70.91309
O         62.93225      121.90585       72.01622
H         60.61243      121.35956       68.47814
H         62.95792      120.46946       69.80103
H         61.30869      120.59900       70.48699
N         62.54828      123.59802       70.58970
C         62.99970      124.62307       71.53113
C         61.98992      125.74610       71.71986
O         60.98794      125.81006       71.02226
C         64.40988      125.13842       71.13237
C         64.60799      125.91373       69.84015
N         63.59593      126.28632       69.02585
O         65.74875      126.22721       69.53545
H         62.26983      123.89037       69.64712
H         63.12980      124.16414       72.53480
H         65.06880      124.24422       71.08019
H         64.79683      125.78168       71.95031
H         62.62384      126.07936       69.25034
H         63.78716      126.81347       68.16059
N         62.21786      126.67958       72.68235
C         61.41820      127.87292       72.89224
C         59.95769      127.59985       73.15366
O         59.63523      126.76917       73.99164
H         63.03761      126.55913       73.29559
H         61.53001      128.54833       72.01678
H         61.82595      128.40493       73.77748
N         59.01391      128.34933       72.51259
C         57.58425      128.21537       72.76387
C         57.05716      126.88410       72.24986
O         57.78838      126.13903       71.61438
C         56.75611      129.44980       72.28498
C         56.86820      129.88390       70.83802
C         57.96381      130.65474       70.39768
C         55.83150      129.60887       69.93151
C         58.04023      131.10103       69.07674
C         55.91012      130.06685       68.61265
C         57.01677      130.80513       68.17727
O         57.10029      131.24499       66.90520
H         59.34856      129.07848       71.87953
H         57.44023      128.20195       73.86796
H         57.02260      130.33300       72.90563
H         55.68745      129.26139       72.52209
H         58.75585      130.94106       71.07374
H         54.95959      129.04686       70.24374
H         58.89121      131.68907       68.75682
H         55.10815      129.85982       67.93008
H         56.41345      131.05874       66.24911
N         55.79236      126.50002       72.58501
C         55.18989      125.19528       72.33101
C         55.05453      124.90817       70.84129
O         56.05919      124.69582       70.17755
C         55.94571      124.04286       73.08024
C         55.11471      122.72991       73.00606
C         56.22697      124.43387       74.54682
C         55.76167      121.52310       73.69395
H         55.21733      127.15711       73.13304
H         54.16845      125.24294       72.77364
H         56.93262      123.87494       72.59584
H         54.95921      122.45706       71.94051
H         54.11725      122.89485       73.46992
H         56.84543      125.35365       74.59889
H         55.28107      124.60418       75.10150
H         56.82067      123.65280       75.06318
H         56.76027      121.31217       73.26019
H         55.86068      121.68024       74.78724
H         55.11424      120.63136       73.55344
N         53.82129      124.83642       70.26265
C         53.59984      124.39846       68.88727
C         52.93675      125.45413       68.00394
O         52.66078      125.13812       66.85554
C         52.75666      123.11141       68.92313
O         51.48958      123.34890       69.48039
H         52.99274      125.04491       70.84110
H         54.56289      124.13526       68.39761
H         53.29708      122.32038       69.49549
H         52.62030      122.70852       67.89732
H         51.56045      123.16537       70.45388
N         52.66973      126.72308       68.43777
C         52.02204      127.72882       67.59009
C         52.85287      127.99909       66.33628
O         54.01020      128.35453       66.48094
C         51.83344      129.03466       68.37092
H         52.93045      126.98701       69.39885
H         51.00821      127.36607       67.33237
H         52.81150      129.44849       68.69410
H         51.31571      129.78765       67.73956
H         51.21359      128.84890       69.27367
N         52.38801      127.82568       65.06220
C         51.04242      127.38003       64.71803
C         50.00611      128.48984       64.92198
O         50.41349      129.64125       65.01994
C         51.01842      126.97689       63.23581
H         53.06502      127.97667       64.29561
H         50.83538      126.47543       65.32090
H         51.24749      127.85542       62.59155
H         51.78074      126.19297       63.04297
H         50.03542      126.57118       62.94099
N         48.65001      128.28203       64.92618
C         47.99560      126.97124       64.97621
C         47.09941      126.82453       66.20536
O         46.60331      125.72435       66.42110
C         47.18465      126.65803       63.69113
C         45.86051      127.42319       63.50092
C         46.03986      128.89401       63.28524
O         45.46394      129.77268       64.12773
O         46.68769      129.30198       62.33472
H         48.05302      129.12030       64.94408
H         48.76377      126.18350       65.05024
H         46.90887      125.58078       63.74080
H         47.81997      126.78541       62.79170
H         45.19718      127.24669       64.37499
H         45.34613      127.00825       62.60733
N         46.79826      127.86844       67.03216
C         45.88420      127.72705       68.14447
H         44.89187      127.38704       67.77591
H         46.28252      126.99401       68.87591
H         45.74872      128.70623       68.65226
H         47.18731      128.80734       66.87179
Ca        59.77131      124.40297       68.81019
O         56.54484      126.09113       67.43322
H         55.92285      125.63941       66.80889
H         55.96356      126.67478       67.98262
O         59.54023      127.90655       68.77485
H         58.59267      128.18818       68.82604
H         59.96917      128.58177       68.19110

Ca 1.0



