%chk=apoCaM-CA-Ng.loop4.water4.frame179.chk
%nprocshared=20
%mem=10GB
%nosave
#b3lyp/svp scf=(tight,noincore,xqc) Test 
#IOP(5/87=12) Density=Current Pop=(MK,readradii) iop(6/33=2) iop(6/42=6)

apoCaM-CA-Ng.loop4.water4.frame179 

   -3  1 
C         71.50822       42.76277       40.72669
C         70.08484       42.58712       41.16151
O         69.20623       43.07157       40.46614
H         72.21286       42.27149       41.42891
H         71.64194       42.31905       39.71749
H         71.74754       43.84611       40.68025
N         69.77876       41.88337       42.29153
C         68.42163       41.65925       42.78021
C         67.57396       40.95676       41.74894
O         66.56232       41.49839       41.37175
C         67.78643       42.94435       43.40052
C         67.83046       44.26076       42.63844
O         67.15166       44.53022       41.49491
O         68.50063       45.16372       43.11480
H         70.54812       41.45143       42.82554
H         68.47142       40.94402       43.63301
H         68.36732       43.11889       44.33509
H         66.74344       42.73186       43.72127
N         67.93187       39.72624       41.27375
C         67.19830       38.91426       40.29212
C         65.87600       38.37559       40.85643
O         65.79236       37.17163       41.05854
C         67.05153       39.63247       38.91813
C         66.35659       38.75330       37.84263
C         68.41598       40.12851       38.40386
C         67.08605       37.45773       37.47111
H         68.81439       39.32556       41.62843
H         67.83781       38.02063       40.11523
H         66.41446       40.52833       39.05405
H         66.25313       39.35487       36.91571
H         65.33514       38.48759       38.18620
H         68.86713       40.84405       39.11800
H         69.12976       39.28993       38.27128
H         68.29294       40.65758       37.43517
H         68.09403       37.66659       37.05902
H         67.17366       36.77983       38.34362
H         66.50604       36.92732       36.68668
N         64.81300       39.17981       41.15611
C         63.59748       38.69073       41.79062
C         62.73054       37.90810       40.80840
O         62.48171       36.74594       41.09656
C         62.83341       39.83258       42.50792
C         63.63619       40.48000       43.61274
O         63.13494       41.37786       44.26989
O         64.89471       40.08529       43.89309
H         64.85901       40.18184       40.97503
H         63.88457       38.00289       42.62044
H         61.91149       39.41174       42.96461
H         62.54365       40.63537       41.81329
N         62.22632       38.40286       39.63422
C         62.45952       39.74981       39.11987
C         61.83378       39.99841       37.75786
O         61.23853       39.07775       37.21513
H         61.65995       37.74691       39.07557
H         63.54577       39.87613       39.00752
H         62.02192       40.47463       39.81244
N         61.90641       41.18836       37.07856
C         62.49769       42.47698       37.46355
C         64.03019       42.46692       37.71611
O         64.32409       42.03537       39.00969
C         61.74177       43.16263       38.62078
C         60.27817       43.31360       38.31711
O         59.36105       42.74603       39.12301
O         59.91294       43.95759       37.34618
H         61.45912       41.19454       36.14702
H         62.35121       43.16127       36.60021
H         62.17122       44.17533       38.78601
H         61.86104       42.60195       39.56469
N         64.86604       41.71918       36.75869
C         64.48990       41.74523       35.33345
C         63.98523       40.38384       34.91726
O         63.95593       39.47901       35.74017
H         65.84967       42.05803       36.86932
H         65.39132       41.95844       34.71592
H         63.75498       42.53709       35.09618
N         63.60658       40.15012       33.62994
C         63.20874       38.82599       33.15661
C         64.26621       38.22567       32.23704
O         64.11676       37.07327       31.85748
C         61.76027       38.84048       32.61487
C         61.45308       39.76693       31.42535
C         62.06991       39.31826       30.13055
N         61.76049       38.11227       29.59867
O         62.82600       40.06681       29.53426
H         63.65548       40.92776       32.95389
H         63.17816       38.11565       34.01214
H         61.11801       39.18130       33.45689
H         61.44414       37.80294       32.37296
H         61.75606       40.80732       31.66783
H         60.35244       39.77290       31.27097
H         61.10257       37.47705       30.07251
H         62.16687       37.81497       28.70071
N         65.41300       38.90794       31.93327
C         66.57269       38.30920       31.27861
C         66.89897       38.97765       29.95435
O         67.90003       38.59898       29.35793
C         67.80597       38.37452       32.23731
C         67.53643       37.60482       33.53877
C         68.25209       39.81465       32.56844
H         65.51804       39.88327       32.23563
H         66.38677       37.23621       31.05213
H         68.65994       37.87227       31.72981
H         66.70479       38.06831       34.11173
H         67.27339       36.54996       33.31259
H         68.44450       37.60478       34.17923
H         69.17038       39.79243       33.19307
H         68.49058       40.37764       31.64178
H         67.47736       40.37036       33.13554
N         66.11333       39.95534       29.41650
C         66.44077       40.63170       28.16782
C         66.53604       42.14265       28.33277
O         66.98054       42.77820       27.38792
C         65.37846       40.31050       27.09572
C         65.21992       38.82803       26.86303
N         66.25188       38.07652       26.41493
O         64.13895       38.30061       27.07416
H         65.23931       40.21135       29.89009
H         67.43098       40.28749       27.79760
H         65.65307       40.79108       26.13167
H         64.40193       40.73330       27.42083
H         67.17020       38.49964       26.22068
H         66.12940       37.06482       26.25816
N         66.07191       42.80214       29.44375
C         66.03483       44.26020       29.52031
C         66.51730       44.78647       30.86229
O         66.61672       44.03214       31.81843
C         64.56885       44.72630       29.36406
C         63.92289       44.24690       28.08698
C         64.40146       44.67152       26.83711
C         62.82042       43.37570       28.13980
C         63.78592       44.23262       25.66034
C         62.20863       42.93685       26.96313
C         62.68591       43.36392       25.72046
O         62.07908       42.93702       24.59479
H         65.62308       42.28232       30.20755
H         66.65622       44.70682       28.71450
H         64.50624       45.83573       29.39374
H         63.99217       44.33825       30.23447
H         65.24599       45.34588       26.77396
H         62.43191       43.03400       29.09138
H         64.16231       44.57076       24.70332
H         61.36003       42.26642       27.01876
H         62.37145       43.21492       23.71513
N         66.72997       46.13123       30.99034
C         66.87027       46.90845       32.22300
C         67.98615       46.53466       33.19605
O         68.10196       47.24270       34.18717
C         65.49450       47.07847       32.92183
C         64.87788       45.81919       33.54815
C         63.55829       46.14332       34.18925
O         63.37524       45.93817       35.50614
O         62.63860       46.58059       33.51534
H         66.68485       46.69318       30.12598
H         67.11950       47.94546       31.89899
H         64.78223       47.49042       32.17180
H         65.60457       47.84172       33.72432
H         65.57121       45.40652       34.31194
H         64.67596       45.05250       32.77864
N         68.85321       45.49634       33.00966
C         69.90089       45.16017       33.97424
C         71.29391       45.27430       33.36879
O         72.25001       45.03672       34.09501
C         69.67266       43.72905       34.51465
C         68.32333       43.51286       35.22917
C         68.19054       44.28395       36.51664
O         68.05353       43.62238       37.68147
O         68.17501       45.50344       36.51811
H         68.78696       44.91359       32.16684
H         69.89649       45.86282       34.83195
H         70.48412       43.45840       35.22660
H         69.72337       43.02328       33.65669
H         68.24802       42.43123       35.47411
H         67.47974       43.76276       34.55278
N         71.50198       45.64324       32.06984
C         72.82103       45.76388       31.48058
H         73.63430       45.52916       32.19917
H         72.90366       45.06640       30.62123
H         72.96671       46.80249       31.11730
H         70.70741       45.85586       31.45195
Ca        65.71213       43.51218       40.05831
O         68.53269       46.67746       39.90550
H         69.19823       46.15033       40.41535
H         68.02991       46.00337       39.38285
O         65.40109       45.47550       37.80588
H         64.42266       45.38171       37.92299
H         65.50901       46.25392       37.20423
O         63.25282       43.43921       41.93863
H         64.10306       43.46110       42.44594
H         62.97393       44.38706       41.87905
O         64.60757       46.38956       40.75764
H         64.29498       47.04731       40.08698
H         65.34573       46.84844       41.23171

Ca 1.0



