%chk=apoCaM-CA-Ng.loop2.water5.frame789.chk
%nprocshared=20
%mem=10GB
%nosave
#b3lyp/svp scf=(tight,noincore,xqc) Test 
#IOP(5/87=12) Density=Current Pop=(MK,readradii) iop(6/33=2) iop(6/42=6)

apoCaM-CA-Ng.loop2.water5.frame789 

   -2  1 
C         14.92539      -13.23825       -2.02197
C         14.40519      -14.61506       -1.72241
O         15.17543      -15.43181       -1.24625
H         15.76935      -13.30634       -2.74051
H         14.13882      -12.59046       -2.46216
H         15.28627      -12.76668       -1.08369
N         13.11046      -14.94438       -2.00102
C         12.50775      -16.25409       -1.74688
C         12.37254      -16.51364       -0.24647
O         11.30158      -16.30065        0.30711
C         11.12175      -16.31593       -2.44047
C         10.44123      -17.65954       -2.33764
O         11.02758      -18.69844       -1.70944
O          9.33932      -17.81153       -2.83921
H         12.52618      -14.22297       -2.45163
H         13.12769      -17.04786       -2.22209
H         11.25102      -16.08827       -3.52097
H         10.45573      -15.53947       -2.00326
N         13.41808      -17.00963        0.46916
C         13.36060      -17.28947        1.90052
C         14.36437      -16.41443        2.62474
O         15.18544      -15.80148        1.95333
C         13.70481      -18.77469        2.08660
H         14.30123      -17.21738       -0.01805
H         12.34978      -17.07366        2.30387
H         14.72180      -18.98008        1.68335
H         13.69602      -19.10346        3.13761
H         12.97682      -19.39940        1.52905
N         14.43095      -16.28608        3.98109
C         13.49885      -16.82154        4.98805
C         12.12915      -16.12440        5.00428
O         11.92958      -15.12012        4.33639
C         14.13842      -16.68541        6.40065
C         14.65198      -15.28113        6.63299
O         13.83346      -14.22636        6.43406
O         15.84282      -15.10619        6.83172
H         15.24261      -15.74188        4.30935
H         13.32678      -17.89623        4.81707
H         14.99784      -17.39205        6.46867
H         13.41964      -16.97388        7.19581
N         11.14521      -16.62853        5.81279
C          9.84403      -16.01847        6.07388
C          9.00990      -15.81030        4.82293
O          9.03355      -16.68322        3.96765
H         11.34127      -17.50479        6.31980
H         10.00054      -15.08068        6.63603
H          9.27919      -16.70008        6.74625
N          8.23196      -14.69984        4.61156
C          7.95881      -13.66430        5.60847
C          7.38141      -12.40268        4.97942
O          6.35676      -12.45399        4.31208
C          6.97615      -14.18961        6.68567
C          6.52935      -13.09831        7.64101
N          7.42364      -12.40014        8.37890
O          5.33988      -12.82860        7.72672
H          7.75174      -14.62421        3.70075
H          8.90337      -13.36237        6.09654
H          7.44687      -15.01078        7.26376
H          6.07180      -14.60071        6.18234
H          8.43184      -12.59748        8.31571
H          7.10535      -11.64430        9.00449
N          7.96896      -11.20601        5.26810
C          7.41396       -9.92664        4.85258
C          8.11477       -8.67782        5.40604
O          7.60813       -7.60288        5.11901
H          8.79752      -11.24487        5.86169
H          6.36200       -9.88140        5.21353
H          7.40369       -9.87575        3.74286
N          9.23642       -8.70112        6.19776
C          9.86384       -7.50758        6.76688
C         11.28221       -7.34688        6.24047
O         11.72345       -8.16635        5.44583
C          9.84646       -7.60159        8.31541
C          8.41522       -7.56005        8.85410
O         10.46417       -8.78562        8.75520
H          9.69945       -9.57975        6.44354
H          9.31639       -6.58722        6.46838
H         10.35939       -6.72075        8.76307
H         11.44398       -8.63043        8.73469
H          7.82161       -8.42117        8.48130
H          8.43082       -7.59320        9.96427
H          7.91952       -6.61583        8.54092
N         12.04406       -6.27583        6.62206
C         13.37714       -6.01281        6.09138
C         14.41066       -6.01869        7.21898
O         14.37096       -5.16298        8.09129
C         13.38854       -4.65260        5.32796
C         14.79937       -4.35029        4.75068
C         12.32541       -4.65210        4.20846
C         14.92221       -2.95860        4.12801
H         11.65089       -5.59149        7.28471
H         13.65051       -6.79963        5.35598
H         13.12312       -3.85237        6.05432
H         15.07864       -5.11901        3.99710
H         15.54723       -4.38399        5.56975
H         12.56020       -5.42186        3.44219
H         11.31473       -4.85612        4.61914
H         12.26091       -3.66132        3.71620
H         15.97013       -2.79519        3.79893
H         14.27040       -2.84579        3.23933
H         14.66294       -2.18196        4.87912
N         15.40104       -6.95277        7.20630
C         16.54907       -7.02195        8.09772
C         17.87876       -6.85261        7.33416
O         18.91157       -6.94774        7.98293
C         16.52731       -8.34055        8.91463
C         16.29714       -9.58377        8.10348
O         17.18083      -10.41396        7.96696
O         15.06280       -9.84036        7.63149
H         15.35283       -7.67447        6.49519
H         16.52551       -6.19376        8.83905
H         15.71151       -8.30249        9.66731
H         17.48117       -8.42774        9.47850
N         17.94938       -6.50526        6.00615
C         19.20788       -6.14887        5.33684
C         19.35324       -6.84604        3.97603
O         19.32943       -6.16727        2.95792
C         19.23961       -4.60071        5.25637
C         20.51404       -3.98685        4.71228
C         20.44624       -3.01593        3.69539
C         21.77265       -4.32546        5.24539
C         21.60983       -2.39436        3.22919
C         22.93432       -3.71235        4.76409
C         22.85275       -2.74394        3.76130
H         17.08076       -6.33613        5.48267
H         20.07949       -6.44617        5.95436
H         19.13572       -4.22450        6.29731
H         18.35627       -4.23570        4.68559
H         19.49178       -2.71901        3.27888
H         21.86358       -5.05911        6.03425
H         21.54759       -1.63461        2.46041
H         23.89854       -3.98077        5.17658
H         23.75203       -2.26021        3.40114
N         19.52882       -8.20412        3.86786
C         19.71496       -8.92541        2.60327
C         18.49750       -8.96344        1.68444
O         18.61423       -9.52621        0.60391
C         20.11993      -10.34112        3.04773
C         19.46049      -10.46561        4.40776
C         19.69187       -9.08650        5.00222
H         20.54884       -8.47963        2.01666
H         19.88287      -11.16121        2.33345
H         21.21682      -10.34718        3.23077
H         18.36474      -10.58515        4.25325
H         19.83220      -11.30120        5.03915
H         18.96808       -8.91665        5.82153
H         20.73610       -8.97163        5.37590
N         17.31663       -8.37895        2.01539
C         16.18867       -8.28363        1.09873
C         16.47862       -7.13106        0.16429
O         16.54474       -7.33055       -1.04056
C         14.81364       -8.08284        1.81203
C         14.42861       -9.22650        2.80164
C         15.18589       -9.14131        4.10429
O         15.20031      -10.09745        5.05663
O         15.74141       -8.09825        4.36760
H         17.29091       -7.84637        2.87727
H         16.09446       -9.23398        0.52457
H         14.04597       -8.06430        1.00736
H         14.75635       -7.09600        2.32450
H         14.59199      -10.20027        2.30399
H         13.34889       -9.13978        3.06317
N         16.72091       -5.89132        0.67708
C         17.08130       -4.76089       -0.14761
H         18.01886       -4.98105       -0.70200
H         16.26485       -4.53349       -0.86310
H         17.25662       -3.87067        0.49468
H         16.67885       -5.74750        1.69771
Ca        14.59815      -12.18554        5.75453
O         14.28666      -13.00584        2.99683
H         13.98056      -13.64093        3.68988
H         13.52612      -12.38243        2.89173
O         11.84801      -11.49882        5.02576
H         12.27679      -10.74288        5.49988
H         11.66432      -11.14842        4.11878
O         17.48031      -13.09476        5.46803
H         17.99185      -13.63761        4.81728
H         18.07335      -13.02616        6.25791
O         12.41487      -12.08239        8.05555
H         12.16765      -13.03779        8.13614
H         12.68226      -11.81674        8.97075
O         15.44323      -12.66070        8.96533
H         16.10675      -13.22322        8.49468
H         15.34354      -13.08583        9.85317

Ca 1.0



