%chk=apoCaM-CA-Ng.loop1.water2.frame877.chk
%nprocshared=20
%mem=10GB
%nosave
#b3lyp/svp scf=(tight,noincore,xqc) Test 
#IOP(5/87=12) Density=Current Pop=(MK,readradii) iop(6/33=2) iop(6/42=6)

apoCaM-CA-Ng.loop1.water2.frame877 

   0  1 
C          4.36471      -16.01447       17.46941
C          3.69182      -14.80565       18.06167
O          2.64201      -14.41264       17.57453
H          5.31417      -16.25273       17.99567
H          3.69358      -16.89512       17.54888
H          4.59845      -15.82949       16.40019
N          4.24215      -14.16953       19.13230
C          3.65020      -12.99343       19.76921
C          3.53530      -11.80943       18.80505
O          4.51113      -11.42188       18.18333
C          4.38533      -12.62222       21.07911
C          5.88206      -12.60824       20.99013
O          6.44799      -11.87270       20.20991
O          6.60836      -13.43111       21.77179
H          5.11463      -14.55939       19.51890
H          2.62265      -13.25567       20.10236
H          4.12343      -13.38538       21.84287
H          4.01158      -11.64046       21.44457
N          2.31699      -11.21194       18.64338
C          1.98519      -10.12430       17.71494
C          2.76149       -8.84509       18.03795
O          2.30671       -8.05449       18.85171
C          0.43578       -9.96253       17.76101
C         -0.25022       -9.02282       16.75428
C         -1.76898       -9.35046       16.74712
C         -2.60424       -8.56865       15.72198
N         -2.89320       -7.20816       16.16658
H          1.54454      -11.59785       19.20829
H          2.24686      -10.45540       16.68569
H          0.10720       -9.68690       18.78889
H          0.04775      -10.98459       17.54909
H          0.14696       -9.22734       15.73714
H         -0.04546       -7.96328       17.01622
H         -2.21657       -9.23227       17.75900
H         -1.86155      -10.42074       16.45978
H         -3.58009       -9.08887       15.59279
H         -2.08953       -8.57030       14.73569
H         -2.02148       -6.71990       16.44111
H         -3.36891       -6.68701       15.39402
H         -3.52896       -7.23471       16.99621
N          3.96603       -8.60363       17.42902
C          4.83089       -7.44043       17.68039
C          6.07784       -7.50413       16.76681
O          6.70452       -8.55098       16.71318
C          5.25315       -7.32671       19.17786
C          6.10243       -8.44919       19.72038
O          6.58240       -8.35763       20.83866
O          6.41488       -9.50349       18.95115
H          4.29038       -9.30167       16.74307
H          4.25905       -6.51876       17.46383
H          4.36558       -7.20184       19.83112
H          5.85208       -6.39399       19.27390
N          6.54884       -6.47617       16.00396
C          6.02047       -5.13205       15.91489
C          4.65991       -5.11269       15.29573
O          4.47340       -5.72496       14.25268
H          7.39861       -6.66064       15.44557
H          6.68089       -4.55196       15.24140
H          6.04036       -4.63757       16.90869
N          3.66132       -4.39430       15.87818
C          2.30355       -4.37188       15.36454
C          1.93330       -2.98396       14.85655
O          2.68023       -2.03714       15.06272
C          1.37817       -4.87020       16.48647
C         -0.03417       -5.02067       16.03390
O         -1.01556       -4.32068       16.63455
O         -0.29694       -5.77174       15.10752
H          3.87016       -3.84533       16.72679
H          2.22356       -5.06159       14.49533
H          1.42967       -4.16820       17.34845
H          1.73283       -5.86623       16.83246
N          0.81186       -2.82121       14.09564
C          0.42044       -1.57465       13.46055
C          1.50699       -1.08954       12.53575
O          1.89511        0.06699       12.62152
H          0.22596       -3.63992       13.88598
H          0.17034       -0.80495       14.22212
H         -0.49029       -1.76871       12.85232
N          2.09891       -1.96390       11.67584
C          3.24332       -1.62575       10.83769
C          4.51462       -2.14864       11.48521
O          4.43553       -2.72225       12.56641
C          3.02621       -2.11874        9.38191
C          2.84552       -3.63729        9.26271
O          1.89845       -1.48831        8.83348
H          1.79800       -2.94890       11.71439
H          3.37869       -0.52222       10.79571
H          3.91802       -1.86166        8.76697
H          2.17771       -0.56796        8.58435
H          1.92157       -3.97915        9.77229
H          2.75172       -3.91507        8.19154
H          3.71892       -4.17333        9.68941
N          5.73471       -1.93923       10.90891
C          6.99277       -2.28631       11.56839
C          7.91027       -1.07057       11.73027
O          8.88928       -1.18679       12.45015
C          7.67607       -3.47698       10.82924
C          8.85994       -4.12333       11.59810
C          8.15262       -3.07149        9.42324
C          8.47329       -4.67775       12.97051
H          5.76341       -1.50945        9.97424
H          6.75211       -2.62222       12.59569
H          6.90511       -4.27173       10.71275
H          9.70271       -3.41168       11.71795
H          9.23192       -4.98164       10.99714
H          7.31573       -2.68287        8.80984
H          8.94306       -2.29273        9.48632
H          8.57232       -3.95253        8.89349
H          8.20012       -3.85984       13.66457
H          7.62821       -5.39381       12.87767
H          9.33921       -5.20967       13.41681
N          7.66628        0.12370       11.10011
C          8.50355        1.30182       11.27564
C          9.19275        1.67886        9.97566
O          8.54003        2.03035        9.00447
C          7.65943        2.47058       11.85033
C          8.46662        3.77191       11.99812
O          6.48788        2.69567       11.10238
H          6.86599        0.22699       10.46667
H          9.29914        1.10021       12.02422
H          7.33694        2.16381       12.86848
H          6.73926        3.09871       10.23304
H          9.37468        3.60091       12.61365
H          8.77813        4.15594       11.00339
H          7.84258        4.55029       12.48414
N         10.55378        1.65939        9.92699
C         11.33771        2.19916        8.82562
C         12.79094        1.79153        9.01347
O         13.33589        1.15997        8.11766
C         11.14877        3.74711        8.75899
C         12.01218        4.42644        7.68950
O         11.42665        4.32073       10.00994
H         11.06042        1.28249       10.74167
H         10.99351        1.75742        7.86255
H         10.08257        3.94117        8.49921
H         10.88118        5.14748       10.08359
H         13.09273        4.29244        7.90491
H         11.78572        4.01671        6.68413
H         11.79908        5.51826        7.68131
N         13.48259        2.12233       10.14376
C         14.89805        1.82380       10.31197
C         15.26427        1.29336       11.69351
O         14.49523        1.39762       12.63854
C         15.72729        3.08733        9.95803
C         15.18143        4.43519       10.49578
C         15.13793        4.58060       12.02503
C         14.56541        5.93948       12.47783
N         13.13930        6.08185       12.16538
H         13.01576        2.68526       10.86898
H         15.19996        1.02027        9.60367
H         15.69006        3.18953        8.85126
H         16.79499        2.94626       10.23310
H         14.16880        4.58211       10.07585
H         15.82191        5.24714       10.08891
H         16.17500        4.48298       12.41075
H         14.51369        3.79547       12.48519
H         15.13984        6.77173       12.01509
H         14.68572        6.01260       13.58097
H         12.97986        6.09998       11.13498
H         12.59291        5.30238       12.60055
H         12.79201        6.98723       12.55619
N         16.49110        0.71543       11.84992
C         17.12574        0.38300       13.12330
C         16.25186       -0.45324       14.06137
O         16.03457        0.01188       15.17156
C         18.53349       -0.22797       12.85756
C         19.49394       -0.22393       14.05830
C         19.06370       -1.10371       15.19197
O         18.86375       -0.57344       16.41360
O         18.92387       -2.30424       15.02273
H         17.05044        0.57662       10.99344
H         17.31118        1.35548       13.63297
H         19.03634        0.40936       12.09678
H         18.46861       -1.24204       12.42247
H         19.61494        0.82122       14.41710
H         20.48882       -0.57865       13.70916
N         15.69098       -1.65976       13.75577
C         15.77173       -2.32256       12.47463
H         15.32860       -1.68281       11.68523
H         16.81196       -2.59152       12.22548
H         15.18815       -3.26817       12.51459
H         15.12977       -2.12753       14.48599
Ca         8.43871      -10.51447       19.04381
O          9.67197      -10.38758       15.92151
H         10.43259       -9.79957       16.15884
H          9.95407      -11.28942       16.21772
O          6.26798      -12.13251       15.72254
H          6.36861      -12.84252       15.03970
H          5.43101      -11.66561       15.47317

Ca 1.0



