%chk=apoCaM-CA-Ng.loop1.water3.frame1155.chk
%nprocshared=20
%mem=10GB
%nosave
#b3lyp/svp scf=(tight,noincore,xqc) Test 
#IOP(5/87=12) Density=Current Pop=(MK,readradii) iop(6/33=2) iop(6/42=6)

apoCaM-CA-Ng.loop1.water3.frame1155 

   0  1 
C        101.89784       51.31904      105.44037
C        103.06319       50.76324      104.67839
O        103.35449       51.28153      103.60928
H        100.96791       51.19507      104.84540
H        101.76940       50.80749      106.41621
H        102.06617       52.40097      105.62481
N        103.75913       49.68368      105.14773
C        104.90302       49.11203      104.44058
C        104.49750       47.90299      103.61877
O        105.11199       46.84864      103.70759
C        106.08893       48.85699      105.40086
C        105.83657       47.82385      106.47706
O        106.81718       47.53612      107.35270
O        104.77066       47.23357      106.56361
H        103.43738       49.23748      106.01789
H        105.25514       49.83888      103.69054
H        106.36134       49.81582      105.89122
H        106.96340       48.51923      104.80249
N        103.46473       48.02356      102.74406
C        103.05701       46.97775      101.81983
C        104.15704       46.73019      100.78862
O        104.54859       45.57795      100.66817
C        101.66929       47.29410      101.20816
C        100.61157       47.32501      102.33570
C         99.21091       47.70179      101.85017
C         98.23655       47.72365      103.04150
N         96.90171       48.15334      102.63130
H        102.94902       48.91384      102.72392
H        102.90222       46.03060      102.38735
H        101.38973       46.49553      100.48616
H        101.67598       48.26032      100.66631
H        100.90306       48.07031      103.10535
H        100.57263       46.32433      102.82177
H         98.85955       46.97030      101.09053
H         99.24996       48.71275      101.38958
H         98.61416       48.42455      103.82021
H         98.17586       46.70704      103.49160
H         96.94335       49.12497      102.24636
H         96.51679       47.50021      101.91163
H         96.27232       48.14997      103.46678
N        104.79317       47.70356      100.05940
C        104.53061       49.14112      100.09710
C        105.61023       49.87517      100.91167
O        106.55795       49.25500      101.37396
C        104.39450       49.67888       98.64657
C        105.71898       49.65422       97.93329
O        106.71523       50.39370       98.44854
O        105.90255       48.95033       96.95534
H        105.57118       47.39257       99.46053
H        103.57367       49.33587      100.60219
H        104.03467       50.72817       98.65810
H        103.64087       49.06882       98.10079
N        105.48249       51.20894      101.16037
C        106.36573       51.99811      102.01694
C        107.72620       52.31247      101.43823
O        107.78062       52.79478      100.32412
H        104.64977       51.68842      100.78601
H        106.44987       51.55766      103.02827
H        105.88261       52.99132      102.14205
N        108.86187       52.21049      102.19234
C        110.15001       52.77022      101.76101
C        110.56505       53.90155      102.69787
O        110.08385       53.93859      103.82239
C        111.23138       51.67227      101.68866
C        110.85117       50.70767      100.61246
O        110.70851       51.15639       99.34763
O        110.56596       49.55657      100.89406
H        108.79633       51.80935      103.14066
H        110.04191       53.20640      100.75276
H        111.31326       51.16533      102.67527
H        112.22815       52.08148      101.43752
N        111.44347       54.88642      102.33572
C        112.03988       55.02893      101.01510
C        111.03169       55.41324       99.95068
O        109.87776       55.67815      100.25806
H        111.70515       55.58882      103.04549
H        112.56431       54.09824      100.73560
H        112.80286       55.83732      101.04135
N        111.43181       55.47329       98.65014
C        110.55855       55.88363       97.54982
C        109.33683       54.97236       97.39803
O        109.36935       53.83405       97.84162
C        111.39313       55.96554       96.24254
C        110.59978       56.45341       95.03119
O        111.95281       54.70932       95.95530
H        112.41827       55.24675       98.44721
H        110.19153       56.90581       97.79286
H        112.20891       56.70312       96.43624
H        112.79551       54.87027       95.45496
H        111.28295       56.54727       94.16083
H        109.80238       55.72770       94.76842
H        110.15011       57.44666       95.23551
N        108.19578       55.46890       96.82333
C        106.92837       54.75828       96.62925
C        107.04320       53.64877       95.59780
O        107.86232       52.75327       95.74953
C        106.32876       54.19021       97.94524
C        106.27953       55.22170       99.10236
C        104.93443       53.56980       97.71272
C        105.40076       56.44640       98.84338
H        108.20581       56.45628       96.52586
H        106.19485       55.50122       96.24645
H        106.97789       53.36042       98.26089
H        107.30833       55.57144       99.32610
H        105.90075       54.71357      100.01634
H        104.21692       54.32145       97.32455
H        104.98408       52.73687       96.98040
H        104.53919       53.15021       98.66111
H        105.43400       57.10976       99.73314
H        105.76892       57.02064       97.96947
H        104.34395       56.15354       98.67957
N        106.14554       53.59553       94.57187
C        106.06920       52.47092       93.64470
C        107.27904       52.40502       92.71662
O        107.47680       51.37862       92.08158
C        104.73109       52.55181       92.86220
C        104.42361       51.32014       92.00978
O        104.72236       53.70015       92.04918
H        105.42574       54.33301       94.51654
H        106.04082       51.54492       94.26340
H        103.92008       52.61014       93.63065
H        103.85888       54.16719       92.19947
H        105.15928       51.19895       91.19046
H        104.41674       50.40820       92.64375
H        103.41775       51.43542       91.55147
N        108.11031       53.47452       92.55382
C        109.25330       53.45931       91.64745
C        110.31642       52.50707       92.17214
O        110.78885       52.70703       93.28174
C        109.81892       54.89401       91.48751
C        111.00723       54.95491       90.52655
O        108.81209       55.74021       90.98704
H        107.89691       54.34960       93.05367
H        108.90534       53.14002       90.63913
H        110.18021       55.26183       92.47271
H        108.44434       56.25702       91.75103
H        111.35990       56.00465       90.43783
H        111.85010       54.34291       90.90586
H        110.71101       54.59135       89.51960
N        110.74797       51.45652       91.41254
C        111.78874       50.51662       91.82255
C        111.37988       49.72234       93.05053
O        112.06568       49.77996       94.06269
C        113.16398       51.21295       92.00145
C        113.75203       51.68208       90.66404
C        115.16375       52.25528       90.85623
C        115.83732       52.52457       89.50396
N        117.19507       53.03759       89.68570
H        110.32602       51.31494       90.48247
H        111.92382       49.75645       91.02082
H        113.87722       50.46142       92.40812
H        113.10813       52.05098       92.72788
H        113.09605       52.43779       90.18316
H        113.82016       50.79615       89.99512
H        115.78768       51.51724       91.40714
H        115.10924       53.19099       91.45533
H        115.23816       53.25616       88.91883
H        115.88762       51.57164       88.92997
H        117.64090       53.16374       88.74827
H        117.16779       53.96004       90.17714
H        117.76742       52.35895       90.23952
N        110.30405       48.88293       92.99122
C        109.94713       47.97500       94.08024
C        108.55744       48.26252       94.64007
O        108.51233       48.63296       95.80400
C        110.13356       46.49398       93.67259
C        111.59759       46.17556       93.32989
C        111.75357       44.73850       92.92104
O        112.54199       43.91317       93.63542
O        111.17638       44.31466       91.93193
H        109.76792       48.85429       92.11427
H        110.64785       48.12489       94.93000
H        109.50781       46.22359       92.80535
H        109.82876       45.84613       94.52427
H        112.23195       46.37624       94.22111
H        111.94994       46.81715       92.49421
N        107.36870       48.11300       93.97812
C        107.16000       47.68587       92.61126
H        106.56120       48.45382       92.08043
H        108.07999       47.53983       92.03592
H        106.59022       46.73205       92.61428
H        106.50557       48.30865       94.50743
Ca       108.94049       50.38727       98.19832
O        108.61350       47.41568       99.03302
H        107.77946       47.58906       99.53182
H        109.28635       47.95915       99.50930
O        111.46496       48.75908       97.33139
H        112.14152       49.29502       96.84668
H        111.73442       48.82082       98.28121
O        110.89690       51.62563       96.19977
H        110.66136       52.55687       95.97070
H        110.33808       51.08071       95.59172

Ca 1.0



