%chk=apoCaM-CA-Ng.loop3.water3.frame759.chk
%nprocshared=20
%mem=10GB
%nosave
#b3lyp/svp scf=(tight,noincore,xqc) Test 
#IOP(5/87=12) Density=Current Pop=(MK,readradii) iop(6/33=2) iop(6/42=6)

apoCaM-CA-Ng.loop3.water3.frame759 

   0  1 
C         96.30880       12.59037       12.63945
C         97.50367       11.70431       12.74938
O         98.01920       11.29672       11.73317
H         95.48288       12.12305       13.19734
H         96.53594       13.59815       13.06169
H         96.03381       12.72711       11.57094
N         98.01667       11.38274       13.96144
C         99.35750       10.82345       14.14065
C         99.44482        9.33810       13.73270
O         98.45573        8.63994       13.87786
C         99.75956       11.06094       15.61374
C        101.23293       11.05322       15.89064
O        101.75739       11.88728       16.80310
O        101.98888       10.42319       15.19371
H         97.47676       11.67850       14.78868
H        100.05517       11.45709       13.56116
H         99.20748       10.37211       16.28216
H         99.44557       12.09364       15.88388
N        100.61999        8.76357       13.32952
C        100.81234        7.32296       13.08632
C        101.60705        6.63310       14.21342
O        101.45035        5.43307       14.38241
C        101.54245        7.04537       11.73709
C        100.64965        7.17925       10.49343
C        101.37137        6.87319        9.15488
C        100.32831        6.77478        8.02531
N        100.86338        6.08740        6.85070
H        101.42629        9.37306       13.25578
H         99.82790        6.81692       13.06934
H        101.87942        5.98370       11.74165
H        102.43703        7.69692       11.66444
H        100.19588        8.18424       10.43233
H         99.84401        6.42073       10.62542
H        101.92440        5.90869        9.23373
H        102.11306        7.65772        8.88359
H         99.98207        7.79335        7.74472
H         99.44092        6.20356        8.38275
H        101.63352        6.63472        6.41051
H        101.22335        5.14233        7.12688
H        100.09303        5.98230        6.15036
N        102.46111        7.31645       15.01831
C        103.28758        6.75896       16.09019
C        102.58863        7.02804       17.41473
O        102.38811        6.10068       18.18578
C        104.75318        7.29037       16.00516
C        104.87852        8.80537       16.02880
O        104.56946        9.39718       17.03320
O        105.27403        9.56639       14.99520
H        102.50123        8.31325       14.88913
H        103.36015        5.65584       15.97772
H        105.21314        6.86774       15.08480
H        105.31068        6.89776       16.88565
N        102.02615        8.24847       17.62867
C        101.02740        8.56514       18.63569
C        101.31560        9.83179       19.41664
O        100.45432       10.27038       20.17128
H        102.21130        8.96489       16.93920
H        100.91313        7.72463       19.34174
H        100.06799        8.71935       18.09452
N        102.54032       10.41908       19.34593
C        102.97799       11.47910       20.22927
C        103.73371       12.58206       19.47907
O        104.17536       12.37398       18.35725
C        103.86371       10.82119       21.31203
C        104.06686       11.75038       22.47868
N        105.29894       11.95671       22.97926
O        103.10822       12.32514       22.97656
H        103.24217        9.98716       18.75606
H        102.09671       11.90904       20.74807
H        104.83045       10.47963       20.86761
H        103.36044        9.90427       21.69209
H        106.09058       11.39667       22.63636
H        105.44730       12.64965       23.72690
N        103.96016       13.77500       20.09855
C        104.80670       14.85311       19.59770
C        104.30886       15.51334       18.31543
O        103.17868       15.98307       18.28689
H        103.55013       13.90926       21.03133
H        105.83844       14.46124       19.49046
H        104.85809       15.63674       20.38465
N        105.13908       15.64168       17.23138
C        104.72691       16.24691       15.96152
C        104.03487       15.18217       15.02877
O        103.52119       14.00005       15.63784
C        105.95748       16.78220       15.16156
C        106.69273       17.86865       15.92728
C        107.98125       17.59769       16.40585
C        106.10226       19.12067       16.22154
C        108.61950       18.49161       17.25634
C        106.76815       20.04051       17.05527
C        108.01320       19.70015       17.60831
O        108.62835       20.51948       18.48413
H        106.11374       15.32476       17.32649
H        104.08408       17.14305       16.18112
H        105.65747       17.14902       14.15587
H        106.63178       15.91322       14.97905
H        108.48428       16.67158       16.16187
H        105.12310       19.37353       15.82928
H        109.58533       18.22870       17.66286
H        106.30625       20.99566       17.29894
H        109.45243       20.24617       18.91867
N        103.09509       15.84743       14.09664
C        101.99198       15.18836       13.36312
C        102.32614       13.78644       12.83499
O        102.45310       12.84502       13.59698
C        100.68213       15.15836       14.17854
C         99.49109       14.59219       13.35739
C        100.33810       16.53272       14.76372
C         99.11703       15.36293       12.07886
H        103.24660       16.86890       13.88829
H        101.79674       15.86317       12.49590
H        100.82119       14.47203       15.03947
H         98.61479       14.51493       14.03615
H         99.73512       13.56519       13.04289
H         99.38213       16.42929       15.31422
H        101.11205       16.87521       15.48599
H        100.24737       17.30537       13.97208
H         98.87713       16.42825       12.27021
H         99.94087       15.30928       11.33869
H         98.22511       14.89302       11.61087
N        102.42663       13.59675       11.49814
C        102.70805       12.30756       10.83197
C        103.19057       12.41474        9.39239
O        103.67030       11.42038        8.85633
C        101.45485       11.45662       10.77018
O        100.46332       12.21707       10.15087
H        102.29783       14.46376       10.98886
H        103.50446       11.80114       11.38047
H        101.18804       11.14474       11.79467
H        101.58871       10.53477       10.16587
H         99.70350       12.17136       10.75196
N        103.00961       13.55772        8.68258
C        103.32328       13.75622        7.28626
C        104.81721       13.59313        7.05472
O        105.55913       13.55068        8.02961
C        102.75610       15.12627        6.87708
H        102.54351       14.33615        9.11818
H        102.76498       12.99520        6.71039
H        101.73132       15.23562        7.30419
H        103.38341       15.97233        7.23194
H        102.59464       15.18878        5.80548
N        105.37055       13.39642        5.82859
C        104.69159       13.46442        4.53979
C        105.65496       14.06103        3.50958
O        106.84911       13.82732        3.63321
C        104.24566       12.05985        4.09087
H        106.37130       13.14920        5.82585
H        103.78328       14.06376        4.60388
H        103.71448       12.10534        3.11204
H        105.12493       11.39402        3.99382
H        103.54299       11.59346        4.81828
N        105.26417       14.77752        2.41763
C        103.92247       15.28818        2.18147
C        103.67680       16.44333        3.14058
O        102.61469       16.49691        3.74347
C        103.72933       15.60330        0.66982
C        102.30400       16.06439        0.31505
C        102.07500       16.11911       -1.17634
O        101.52341       15.06539       -1.81165
O        102.25379       17.15911       -1.79058
H        106.00179       15.02547        1.73739
H        103.19190       14.48855        2.41086
H        103.89849       14.64367        0.12931
H        104.47891       16.33893        0.30653
H        102.10347       17.06540        0.74895
H        101.58074       15.33856        0.74602
N        104.67237       17.33185        3.42586
C        104.60090       18.25716        4.53693
H        103.65982       18.84139        4.51726
H        104.66895       17.68467        5.49101
H        105.46898       18.95045        4.50064
H        105.55804       17.29591        2.90191
Ca       104.40270       11.74154       15.33625
O        103.50625        9.88448       12.67520
H        104.09441        9.73578       11.90323
H        103.86707        9.28067       13.35027
O        105.35314       12.54640       13.07116
H        105.66273       12.29133       12.17101
H        105.40182       13.53309       13.10459
O        106.72376       12.39623       15.91025
H        107.24928       12.38908       16.74207
H        107.28731       12.78851       15.20203

Ca 1.0



