%chk=apoCaM-CA-Ng.loop4.water3.frame463.chk
%nprocshared=20
%mem=10GB
%nosave
#b3lyp/svp scf=(tight,noincore,xqc) Test 
#IOP(5/87=12) Density=Current Pop=(MK,readradii) iop(6/33=2) iop(6/42=6)

apoCaM-CA-Ng.loop4.water3.frame463 

   -3  1 
C         40.30887       41.82263       93.54952
C         40.34607       41.01755       94.81230
O         41.41409       40.56966       95.16684
H         41.31245       41.83114       93.06733
H         39.58685       41.37098       92.83781
H         40.01332       42.86580       93.77837
N         39.20680       40.78066       95.52287
C         39.06337       39.97406       96.74168
C         40.34240       39.52467       97.45510
O         40.63825       38.34197       97.48646
C         37.99937       38.85980       96.54581
C         38.08399       37.81911       95.44326
O         39.11590       37.62404       94.60359
O         37.11221       37.09853       95.29018
H         38.33693       41.19522       95.15441
H         38.58525       40.63171       97.50436
H         37.04846       39.39950       96.34052
H         37.86189       38.32404       97.50990
N         41.04740       40.44370       98.18838
C         42.17944       40.18574       99.08864
C         41.78892       39.21491      100.20607
O         41.45981       39.68307      101.28737
C         43.49451       39.81790       98.33960
C         44.69763       39.57060       99.28966
C         43.87332       40.90565       97.32149
C         45.10966       40.77514      100.14670
H         40.70964       41.41906       98.16517
H         42.37944       41.16000       99.58991
H         43.32370       38.88036       97.77183
H         45.57039       39.27917       98.66959
H         44.47744       38.71903       99.96609
H         44.02532       41.89232       97.79961
H         44.79101       40.61587       96.77154
H         43.08088       41.04786       96.58786
H         44.29568       41.06929      100.83912
H         45.99925       40.50688      100.75281
H         45.38992       41.64690       99.52244
N         41.83673       37.85963      100.03699
C         41.39860       36.89749      101.04391
C         42.57271       36.24989      101.80155
O         42.56187       36.40610      103.01551
C         40.40988       35.88810      100.42730
C         39.11886       36.50537       99.95328
O         38.87881       37.82433      100.08724
O         38.26731       35.79293       99.44610
H         42.18019       37.48690       99.14703
H         40.81568       37.42336      101.83596
H         40.15198       35.12104      101.19043
H         40.86785       35.40314       99.55161
N         43.63752       35.55811      101.27863
C         43.94423       35.28942       99.88552
C         43.11720       34.16698       99.28302
O         42.30808       33.58146       99.98843
H         44.35963       35.25229      101.95108
H         44.99916       34.94461       99.82658
H         43.90168       36.23502       99.32891
N         43.28034       33.75144       97.98776
C         44.28453       34.29253       97.06959
C         44.08038       35.77669       96.81619
O         42.97240       36.25741       97.00393
C         44.30900       33.50170       95.73946
C         43.02016       33.59338       94.96416
O         42.63185       34.66680       94.53132
O         42.30303       32.48097       94.71747
H         42.68780       32.97134       97.66223
H         45.26480       34.14727       97.57124
H         44.51424       32.43516       95.97623
H         45.12886       33.86128       95.08457
N         45.09986       36.61440       96.48133
C         46.47912       36.23647       96.24044
C         47.34028       36.72188       97.36908
O         46.81734       37.04270       98.42817
H         44.90236       37.62441       96.44283
H         46.79150       36.70803       95.28396
H         46.64388       35.14733       96.13909
N         48.68814       36.79879       97.21107
C         49.57816       37.23373       98.27864
C         50.17303       38.61332       98.01246
O         50.80657       39.13892       98.91750
C         50.58848       36.11630       98.61538
C         51.48155       35.63195       97.46074
C         52.42000       36.68898       96.96706
N         53.31151       37.25742       97.80836
O         52.38897       37.02417       95.79450
H         49.08754       36.56378       96.29009
H         48.99334       37.38399       99.21333
H         49.99878       35.23425       98.94935
H         51.21259       36.43126       99.47814
H         50.85419       35.25133       96.62824
H         52.09382       34.77997       97.82388
H         53.36147       36.97903       98.79779
H         53.95791       37.97762       97.47325
N         49.91873       39.30825       96.85912
C         50.20221       40.73808       96.70942
C         51.17122       41.06808       95.57827
O         51.44992       42.24708       95.40447
C         48.86209       41.51713       96.52719
C         47.92203       41.28733       97.72113
C         48.13182       41.16163       95.21963
H         49.41326       38.84566       96.09333
H         50.67754       41.13257       97.63493
H         49.09350       42.60520       96.49431
H         46.99701       41.89056       97.60215
H         47.63273       40.21792       97.79828
H         48.41552       41.59276       98.66776
H         48.77505       41.36621       94.33863
H         47.82584       40.09658       95.19843
H         47.21544       41.78118       95.12184
N         51.74506       40.11297       94.78966
C         52.69411       40.42823       93.72198
C         52.26031       39.88022       92.36702
O         53.02496       40.04025       91.42459
C         54.09228       39.87154       94.07003
C         54.66154       40.44419       95.34586
N         54.82331       41.77765       95.51050
O         55.00812       39.68868       96.23704
H         51.53206       39.12415       94.96362
H         52.79963       41.52648       93.59373
H         54.79995       40.13542       93.25427
H         54.04639       38.76149       94.13935
H         54.55410       42.44358       94.77362
H         55.22192       42.14682       96.38693
N         51.06251       39.25481       92.16061
C         50.70214       38.70701       90.84926
C         49.22872       38.38873       90.72313
O         48.59436       38.13356       91.73261
C         51.55613       37.45231       90.52308
C         51.54962       36.40020       91.62863
C         52.74930       36.09704       92.29967
C         50.37978       35.71032       92.00669
C         52.77595       35.14436       93.32318
C         50.40641       34.76611       93.03794
C         51.60211       34.47915       93.69922
O         51.61192       33.56306       94.68872
H         50.38693       39.19626       92.93557
H         50.87910       39.50258       90.09122
H         52.60018       37.79291       90.36592
H         51.22662       36.99857       89.56356
H         53.67020       36.59990       92.03397
H         49.43973       35.88677       91.51486
H         53.70967       34.92733       93.82612
H         49.49452       34.25426       93.32159
H         52.41783       33.33922       95.17581
N         48.65641       38.33492       89.47301
C         47.26445       38.00555       89.14376
C         46.26418       39.10529       89.49113
O         45.53524       39.52664       88.60250
C         46.84917       36.62786       89.69724
C         47.68477       35.51272       89.04634
C         47.30118       34.16302       89.57481
O         47.46841       33.87623       90.87972
O         46.85409       33.31244       88.82190
H         49.27497       38.50702       88.66563
H         47.19339       37.91485       88.03446
H         45.78154       36.44327       89.44245
H         46.93763       36.60077       90.80248
H         48.76656       35.67144       89.23469
H         47.51926       35.53900       87.94530
N         46.14954       39.60953       90.74683
C         45.15181       40.58523       91.15718
C         45.30585       41.92184       90.42919
O         44.42635       42.76090       90.56974
C         45.23413       40.83314       92.69304
C         45.32841       39.57485       93.60120
C         44.13570       38.68388       93.54330
O         43.77229       38.17125       92.49710
O         43.45649       38.47283       94.68145
H         46.77250       39.26184       91.45347
H         44.15606       40.15617       90.91088
H         44.36487       41.45455       93.00646
H         46.15701       41.41844       92.89247
H         45.42983       39.92760       94.64596
H         46.23240       38.97109       93.40866
N         46.39589       42.20785       89.65535
C         46.54160       43.46531       88.95438
H         47.50710       43.48016       88.40306
H         45.71667       43.58931       88.22139
H         46.53380       44.30951       89.67537
H         47.16498       41.53102       89.55889
Ca        41.28142       38.06078       94.67543
O         39.68158       34.96346       93.83839
H         39.71330       34.57147       92.93050
H         38.85737       34.59337       94.24250
O         40.78765       37.06104       91.93466
H         41.41363       37.77983       91.67017
H         41.24935       36.22289       91.68131
O         40.43407       34.94442       96.84610
H         39.79730       35.68265       97.01624
H         39.86480       34.17267       96.60239

Ca 1.0



