%chk=apoCaM-CA-Ng.loop3.water6.frame299.chk
%nprocshared=20
%mem=10GB
%nosave
#b3lyp/svp scf=(tight,noincore,xqc) Test 
#IOP(5/87=12) Density=Current Pop=(MK,readradii) iop(6/33=2) iop(6/42=6)

apoCaM-CA-Ng.loop3.water6.frame299 

   0  1 
C         88.50153       24.08484       33.17910
C         89.85413       23.68248       33.68508
O         90.74111       23.45885       32.87435
H         87.78752       24.24361       34.01442
H         88.58692       25.02806       32.60046
H         88.10096       23.28739       32.52015
N         90.08332       23.55953       35.02415
C         91.36199       23.16802       35.60067
C         91.72542       21.76777       35.13154
O         92.75240       21.57430       34.49407
C         92.43982       24.24520       35.31564
C         93.72907       24.03177       36.07113
O         93.89067       22.98395       36.90404
O         94.63817       24.83578       35.94208
H         89.30833       23.74375       35.67950
H         91.24003       23.13135       36.70735
H         92.03774       25.23221       35.63345
H         92.66438       24.29640       34.23020
N         90.90680       20.72574       35.45334
C         91.21940       19.34125       35.10814
C         90.96304       19.02713       33.63869
O         91.29577       17.93041       33.20969
C         90.37766       18.35014       35.95250
C         90.39152       18.59726       37.47367
C         91.80094       18.73387       38.05806
C         91.74357       18.93747       39.57579
N         93.07738       19.20103       40.11232
H         90.07596       20.93058       36.02685
H         92.29219       19.16395       35.34463
H         90.75729       17.32322       35.75540
H         89.31352       18.38870       35.62756
H         89.85258       17.75556       37.96115
H         89.82709       19.52427       37.70839
H         92.29081       19.62433       37.60974
H         92.40360       17.83027       37.82296
H         91.31672       18.02792       40.05419
H         91.08453       19.80234       39.81504
H         93.45098       20.09089       39.70736
H         93.01466       19.30547       41.15040
H         93.72348       18.41150       39.88362
N         90.29303       19.89822       32.83202
C         89.87815       19.57190       31.47289
C         91.08258       19.37450       30.57442
O         91.91403       20.26720       30.50496
C         88.97137       20.70136       30.93365
C         88.28335       20.37912       29.63550
O         87.45939       21.29014       29.08684
O         88.42901       19.29759       29.09019
H         89.99013       20.80176       33.22015
H         89.26144       18.64671       31.51338
H         89.56430       21.63491       30.81849
H         88.16422       20.88851       31.67445
N         91.24121       18.22719       29.85175
C         92.39362       17.99062       28.99505
C         92.50643       18.93529       27.80963
O         93.52695       18.87741       27.13854
H         90.53773       17.47761       29.93498
H         92.35717       16.95331       28.59467
H         93.30960       18.08213       29.61676
N         91.51265       19.80392       27.45649
C         91.63990       20.71038       26.31497
C         92.59564       21.86210       26.59175
O         92.87631       22.61692       25.66951
C         90.26469       21.29975       25.92958
C         89.27659       20.21331       25.61158
N         89.52673       19.32585       24.62213
O         88.24597       20.12814       26.26120
H         90.62532       19.78707       27.97315
H         92.02270       20.12707       25.44973
H         90.36644       21.94825       25.03338
H         89.87646       21.92115       26.76769
H         90.38510       19.38212       24.05830
H         88.86977       18.56635       24.42177
N         93.08434       22.10430       27.84223
C         93.90620       23.25097       28.18220
C         93.17903       24.53242       27.85812
O         93.72165       25.36013       27.14171
H         92.82755       21.48535       28.61842
H         94.87763       23.20042       27.64384
H         94.11191       23.22752       29.27449
N         91.90537       24.72121       28.30554
C         91.08932       25.87327       27.94793
C         90.00849       25.41358       26.99430
O         89.24238       24.52390       27.33419
C         90.46616       26.50922       29.20186
C         91.49798       27.13396       30.10785
C         91.68035       26.65955       31.41639
C         92.26920       28.22057       29.65908
C         92.61787       27.26051       32.26200
C         93.20306       28.82252       30.50628
C         93.37922       28.34498       31.81269
O         94.26992       28.92248       32.64382
H         91.46282       23.97168       28.86015
H         91.69638       26.64336       27.42666
H         89.88045       25.73313       29.74345
H         89.75875       27.31172       28.89766
H         91.09503       25.82864       31.78375
H         92.14003       28.61136       28.65749
H         92.74731       26.88690       33.26990
H         93.78380       29.66324       30.14769
H         94.80517       29.68309       32.37548
N         89.92004       25.97866       25.75589
C         88.98182       25.54989       24.72688
C         89.80633       25.03596       23.55667
O         89.66647       23.87178       23.21197
C         88.02790       26.71491       24.32605
C         87.30751       27.35017       25.54752
C         86.98711       26.26218       23.28190
C         86.35753       26.41640       26.30782
H         90.57279       26.73943       25.51795
H         88.35055       24.71326       25.09952
H         88.64185       27.52312       23.87062
H         86.71653       28.22416       25.19571
H         88.06611       27.73619       26.26138
H         86.34338       27.11773       22.98574
H         87.46320       25.87536       22.37036
H         86.34880       25.44361       23.67033
H         86.89584       25.54119       26.71980
H         85.90203       26.97028       27.15494
H         85.53010       26.06477       25.65899
N         90.73977       25.82639       22.94118
C         91.63646       25.32498       21.89882
C         90.91602       24.98176       20.60156
O         91.52513       24.34596       19.75411
C         92.76192       26.32996       21.61774
O         93.47274       26.57604       22.80157
H         90.86731       26.79311       23.27716
H         92.10983       24.39478       22.28898
H         92.31176       27.27345       21.23107
H         93.46049       25.91331       20.85878
H         93.96646       27.42527       22.66350
N         89.61524       25.33891       20.39022
C         88.81213       24.91448       19.24932
C         88.78490       23.39215       19.20228
O         89.11115       22.79796       18.18281
C         89.31022       25.57226       17.95338
H         89.14062       25.90670       21.09600
H         87.77100       25.27267       19.41596
H         88.64575       25.30176       17.10598
H         89.29478       26.67838       18.06634
H         90.34589       25.26059       17.70740
N         88.48957       22.70487       20.34248
C         88.61922       21.26030       20.49823
C         87.39009       20.69122       21.18592
O         86.97814       21.24304       22.19753
C         89.86316       20.97930       21.34126
H         88.27179       23.25343       21.18864
H         88.78754       20.75965       19.51892
H         90.00996       19.88432       21.45029
H         90.75760       21.40168       20.83194
H         89.78037       21.43604       22.34817
N         86.75484       19.58392       20.69378
C         85.51547       19.01946       21.23912
C         84.31877       19.94364       21.03504
O         83.24102       19.59170       21.49605
C         85.62211       18.60279       22.73014
C         86.59082       17.44493       22.99037
C         86.49496       17.05111       24.44193
O         86.71933       17.97652       25.39379
O         86.16936       15.91818       24.75909
H         87.15944       19.11599       19.86846
H         85.26800       18.09515       20.67183
H         84.62262       18.24197       23.05951
H         85.88038       19.46932       23.37358
H         87.62611       17.74910       22.73692
H         86.31995       16.57268       22.35567
N         84.39954       21.10135       20.31569
C         83.26389       21.97184       20.09027
H         82.34511       21.61724       20.60307
H         83.50192       22.98819       20.46536
H         83.05655       22.02478       19.00125
H         85.28328       21.38460       19.87312
Ca        86.51237       17.62059       27.60733
O         87.49778       16.67187       30.22630
H         87.22069       17.11845       31.06519
H         87.73845       15.75119       30.49754
O         84.62361       18.10127       29.91799
H         84.77258       18.63691       30.73711
H         83.64826       17.93248       29.90215
O         89.32918       16.64948       27.48269
H         89.88793       16.79686       26.67916
H         89.02953       15.70860       27.41032
O         85.75793       14.78772       27.98299
H         86.66096       14.71704       27.58274
H         85.21736       15.25124       27.29474
O         85.04448       20.63671       27.49458
H         84.53578       20.92533       28.29374
H         84.52465       20.98682       26.72826
O         83.72180       17.82304       26.70064
H         83.05873       17.18094       26.34390
H         83.18218       18.50578       27.17245

Ca 1.0



