%chk=apoCaM-CA-Ng.loop1.water2.frame1489.chk
%nprocshared=20
%mem=10GB
%nosave
#b3lyp/svp scf=(tight,noincore,xqc) Test 
#IOP(5/87=12) Density=Current Pop=(MK,readradii) iop(6/33=2) iop(6/42=6)

apoCaM-CA-Ng.loop1.water2.frame1489 

   0  1 
C         26.27063       76.14686       24.40774
C         26.10815       77.26538       23.42018
O         27.01254       78.07597       23.28473
H         27.25271       76.21307       24.92403
H         25.46447       76.19871       25.16942
H         26.21169       75.17179       23.88018
N         24.96353       77.36312       22.68749
C         24.71359       78.41361       21.70194
C         23.52341       79.29840       22.08292
O         23.21281       80.21246       21.33234
C         24.56284       77.77754       20.30721
C         23.41622       76.80933       20.21116
O         23.62698       75.63507       19.95249
O         22.15162       77.23357       20.38808
H         24.23227       76.64906       22.83314
H         25.58852       79.09841       21.63890
H         25.51155       77.24378       20.07328
H         24.42919       78.57257       19.54298
N         22.86519       79.13866       23.26842
C         21.83160       80.04287       23.76756
C         22.27349       81.50776       23.81264
O         21.45976       82.32271       23.39899
C         21.38361       79.63846       25.19461
C         20.32700       78.51735       25.33891
C         20.60047       77.15720       24.67710
C         20.13879       77.10638       23.20813
N         20.34804       75.77674       22.63766
H         23.16167       78.38098       23.89736
H         20.93090       80.01406       23.11600
H         20.89357       80.51328       25.68076
H         22.28413       79.40578       25.80167
H         19.32795       78.87969       25.00796
H         20.25071       78.34660       26.43547
H         19.97173       76.40776       25.20677
H         21.66027       76.85862       24.81271
H         20.66516       77.84974       22.58372
H         19.04961       77.34202       23.17190
H         21.37197       75.57288       22.58487
H         19.87061       75.04958       23.21860
H         19.94403       75.75138       21.67318
N         23.44127       81.99525       24.33361
C         24.64843       81.26053       24.71424
C         25.82541       81.80720       23.90030
O         25.64303       82.76129       23.15336
C         24.85828       81.31493       26.23681
C         24.74986       82.69629       26.79743
O         25.54965       83.56093       26.48573
O         23.73580       82.98503       27.63541
H         23.50821       83.02469       24.40026
H         24.57624       80.19399       24.46638
H         25.82723       80.85299       26.52269
H         24.05293       80.71013       26.70500
N         27.04760       81.19985       23.92046
C         28.11322       81.60080       23.00821
C         28.67799       82.97194       23.30433
O         28.48802       83.48416       24.39849
H         27.19218       80.37189       24.51547
H         27.69698       81.58727       21.97564
H         28.94991       80.87126       23.03256
N         29.34743       83.64765       22.32363
C         29.87295       85.00299       22.48578
C         31.24480       85.12511       21.80605
O         31.42052       84.51703       20.75858
C         28.92636       86.01160       21.80722
C         27.46833       85.82443       22.16088
O         26.98590       85.86104       23.42398
O         26.67782       85.61434       21.25459
H         29.39319       83.21468       21.38754
H         29.90554       85.28104       23.55966
H         29.01311       85.90059       20.70168
H         29.24387       87.04451       22.06510
N         32.23041       85.97546       22.21882
C         32.16779       86.80434       23.40460
C         32.30033       85.98099       24.65510
O         32.47640       84.77178       24.57586
H         33.07435       86.06441       21.63024
H         31.22989       87.39798       23.40264
H         33.02209       87.51631       23.39774
N         32.23847       86.59203       25.87040
C         32.36937       85.85449       27.12488
C         31.27379       84.79712       27.23188
O         30.34879       84.81723       26.43127
C         32.38043       86.86369       28.30879
C         32.66356       86.24727       29.68103
O         31.16162       87.56183       28.35077
H         32.10558       87.61561       25.89196
H         33.35193       85.33234       27.09650
H         33.21551       87.57281       28.09255
H         31.33920       88.42615       28.80658
H         31.82392       85.60602       30.01497
H         33.60958       85.66566       29.65540
H         32.77335       87.05677       30.43283
N         31.34743       83.80846       28.16909
C         30.38195       82.72411       28.31588
C         29.00728       83.28112       28.64452
O         28.34647       83.84195       27.78308
C         30.43634       81.75242       27.09450
C         31.83086       81.06382       27.09391
C         29.29947       80.71379       27.14167
C         32.09994       80.14871       25.90174
H         32.15320       83.79341       28.80946
H         30.69772       82.12600       29.19986
H         30.30828       82.32807       26.15349
H         31.94757       80.46734       28.02655
H         32.62423       81.84202       27.08560
H         29.33018       80.05041       26.25374
H         29.35929       80.09946       28.06366
H         28.31186       81.21929       27.10739
H         31.39533       79.29414       25.87507
H         32.03583       80.72281       24.95450
H         33.12543       79.73045       25.99660
N         28.53920       83.17545       29.91952
C         27.25564       83.70102       30.35979
C         27.42217       84.86161       31.33208
O         26.40557       85.36906       31.78713
C         26.39388       82.57329       30.98567
C         27.03557       81.92294       32.21895
O         26.14486       81.57584       30.02988
H         29.14370       82.73514       30.62711
H         26.69616       84.09956       29.49629
H         25.42503       83.01209       31.32802
H         25.33482       81.85358       29.52836
H         26.33830       81.17517       32.65122
H         27.97219       81.39146       31.95307
H         27.25795       82.68299       32.99727
N         28.64661       85.34108       31.70811
C         28.79576       86.41382       32.68796
C         28.16222       87.69693       32.16620
O         28.70499       88.30103       31.25102
C         30.29341       86.61355       33.03651
C         30.51874       87.71088       34.07982
O         30.80812       85.40195       33.53023
H         29.49989       84.91273       31.32041
H         28.27164       86.09033       33.61525
H         30.82925       86.89702       32.09929
H         31.78021       85.39196       33.32747
H         31.60585       87.80146       34.29141
H         30.16077       88.69198       33.70395
H         29.98883       87.46309       35.02314
N         26.96925       88.13020       32.67660
C         26.25171       89.31884       32.21948
C         26.14274       89.35066       30.70231
O         26.59929       90.28893       30.06460
C         26.84515       90.59930       32.84074
C         26.61265       90.61680       34.36524
C         27.08481       91.93413       34.99589
C         26.80150       92.02085       36.50885
N         25.36755       92.05805       36.81410
H         26.50234       87.54901       33.38938
H         25.20373       89.26118       32.59255
H         26.30215       91.47320       32.41692
H         27.92437       90.69664       32.59450
H         27.14055       89.76399       34.84557
H         25.52251       90.50368       34.54086
H         26.59128       92.79453       34.49325
H         28.18144       92.02014       34.83804
H         27.26244       92.95983       36.88750
H         27.27945       91.16780       37.03895
H         25.24276       92.20373       37.84211
H         24.91042       92.85188       36.30881
H         24.90280       91.15849       36.55980
N         25.53688       88.31054       30.07243
C         25.35513       88.19121       28.62593
C         25.30948       86.69962       28.19589
O         26.62509       86.25558       27.98397
C         24.11572       88.95711       28.09724
C         24.29055       90.48090       28.08790
C         23.10807       91.14549       27.44225
O         21.88310       91.02556       27.98862
O         23.25192       91.80045       26.42190
H         25.22162       87.54019       30.67772
H         26.23570       88.61175       28.08915
H         23.19690       88.69416       28.65286
H         23.96776       88.65599       27.03713
H         25.20783       90.73071       27.50817
H         24.39064       90.87681       29.11691
N         24.64057       85.79268       29.14949
C         23.20894       86.02563       29.33468
H         22.67201       86.02726       28.36259
H         22.79166       85.21410       29.97035
H         23.03082       86.95838       29.90125
H         24.73894       84.82668       28.77909
Ca        26.84787       85.98346       25.70185
O         28.68462       88.35171       25.77000
H         27.78922       88.64473       25.46397
H         28.53658       88.02603       26.69350
O         24.10332       86.66518       24.63335
H         24.44805       86.56224       23.71114
H         24.51269       87.50720       24.95508

Ca 1.0



