%chk=apoCaM-CA-Ng.loop4.water4.frame304.chk
%nprocshared=20
%mem=10GB
%nosave
#b3lyp/svp scf=(tight,noincore,xqc) Test 
#IOP(5/87=12) Density=Current Pop=(MK,readradii) iop(6/33=2) iop(6/42=6)

apoCaM-CA-Ng.loop4.water4.frame304 

   -3  1 
C         88.21153       44.49281       29.24546
C         89.54723       43.81509       29.22782
O         90.25778       43.91107       30.20936
H         87.41130       43.73140       29.13430
H         88.05682       45.02471       30.21037
H         88.14789       45.22620       28.41668
N         89.93911       43.08537       28.14511
C         91.18068       42.31714       28.05078
C         91.19751       41.20391       29.08404
O         92.08476       41.14458       29.91355
C         92.44867       43.21085       27.92186
C         92.83701       44.18550       29.01314
O         93.34829       43.77520       30.19174
O         92.85701       45.37891       28.75610
H         89.28940       43.02753       27.34602
H         91.15997       41.77968       27.07517
H         92.28934       43.81048       26.99740
H         93.32657       42.55706       27.72814
N         90.20234       40.26720       29.03115
C         89.96334       39.12087       29.91323
C         91.04845       38.05028       29.84565
O         90.75379       36.98423       29.32071
C         89.59736       39.53881       31.36168
C         89.21545       38.32105       32.25196
C         88.45099       40.56832       31.34429
C         88.00452       37.50712       31.77164
H         89.50468       40.38611       28.27920
H         89.04775       38.64183       29.49947
H         90.47962       40.02233       31.83443
H         88.99760       38.69325       33.27439
H         90.08119       37.63037       32.33057
H         88.76562       41.49486       30.82330
H         87.55444       40.17199       30.82547
H         88.16035       40.84322       32.37431
H         87.81396       36.67671       32.48258
H         87.09084       38.13330       31.72480
H         88.18481       37.05010       30.77859
N         92.30293       38.22093       30.35948
C         93.31362       37.17369       30.27183
C         92.93527       35.97085       31.14212
O         92.70830       34.92268       30.55373
C         94.73627       37.72113       30.52336
C         95.12061       38.73649       29.47814
O         95.15165       38.42559       28.29762
O         95.44709       39.99077       29.84033
H         92.55936       39.10518       30.81045
H         93.33976       36.81661       29.21506
H         95.46597       36.88420       30.46870
H         94.82203       38.20643       31.50901
N         92.80631       35.97621       32.50714
C         93.07761       37.10953       33.38531
C         92.82374       36.80416       34.86581
O         92.37171       35.70901       35.16793
H         92.50803       35.08515       32.93136
H         92.44409       37.96425       33.07939
H         94.13882       37.34171       33.28304
N         93.05997       37.69263       35.88642
C         93.60373       39.04496       35.79616
C         92.74669       39.90732       34.89399
O         93.21819       40.30205       33.83566
C         95.10951       39.03012       35.40825
C         95.78799       40.37341       35.54274
O         95.11605       41.46279       35.96377
O         96.97416       40.47422       35.27324
H         92.82150       37.37757       36.84013
H         93.58452       39.49135       36.81602
H         95.26448       38.69619       34.37091
H         95.64092       38.32626       36.08386
N         91.48185       40.29539       35.21613
C         90.77013       40.06552       36.46070
C         90.26453       38.66275       36.63225
O         89.74300       38.08874       35.68940
H         90.99892       40.88704       34.53893
H         89.84678       40.67452       36.42920
H         91.35189       40.43509       37.33236
N         90.29847       38.08676       37.86320
C         89.77358       36.75545       38.14734
C         88.28172       36.57127       37.83377
O         87.85989       35.42402       37.79049
C         90.05786       36.34413       39.61926
C         89.24015       37.10468       40.69553
C         89.54317       38.58085       40.79420
N         90.77277       39.01643       41.15299
O         88.66765       39.39641       40.55375
H         90.75351       38.61959       38.61301
H         90.33797       36.06158       37.48462
H         91.14515       36.43988       39.82934
H         89.80056       35.26734       39.72298
H         89.44984       36.65501       41.68929
H         88.15880       36.95411       40.49248
H         91.52813       38.35039       41.36658
H         90.96782       40.02717       41.21625
N         87.41947       37.61994       37.64714
C         85.99159       37.44135       37.33729
C         85.06937       37.90918       38.45861
O         83.86429       37.75468       38.30700
C         85.60230       38.16218       36.01422
C         86.32296       37.55315       34.81224
C         85.84068       39.68266       36.06688
H         87.77855       38.57836       37.75340
H         85.76064       36.36081       37.20807
H         84.51445       37.99962       35.84132
H         86.09561       36.46875       34.73589
H         85.97405       38.04551       33.88039
H         87.41674       37.68411       34.89875
H         85.47474       40.15300       35.13007
H         85.28591       40.13934       36.91358
H         86.91840       39.92481       36.17173
N         85.53911       38.47013       39.60616
C         84.67802       38.91632       40.69468
C         84.86063       40.39826       40.99756
O         84.20527       40.86149       41.91887
C         85.02336       38.10915       41.96776
C         84.79003       36.62893       41.80750
N         83.54615       36.14335       41.58670
O         85.73271       35.85719       41.90172
H         86.55037       38.57208       39.73605
H         83.60387       38.76067       40.45308
H         84.40595       38.45564       42.82543
H         86.09203       38.28723       42.22164
H         82.73536       36.77566       41.52315
H         83.39041       35.12859       41.49366
N         85.72066       41.20814       40.30324
C         86.06127       42.55785       40.76339
C         86.77082       43.36565       39.68791
O         87.70751       42.84708       39.10038
C         87.09373       42.48071       41.92257
C         86.65334       41.75385       43.16412
C         85.60878       42.25067       43.95980
C         87.30995       40.57332       43.55005
C         85.22301       41.56720       45.11804
C         86.92194       39.89177       44.70276
C         85.87942       40.38389       45.49164
O         85.52176       39.71472       46.60534
H         86.20555       40.83976       39.47287
H         85.14718       43.10454       41.08451
H         87.38706       43.51025       42.22669
H         88.00781       41.98532       41.52394
H         85.09621       43.16356       43.68273
H         88.12225       40.17455       42.95873
H         84.41619       41.95815       45.72415
H         87.43624       38.98084       44.98192
H         84.81127       40.02307       47.18481
N         86.49835       44.70434       39.55207
C         87.30958       45.68308       38.81570
C         87.03279       45.70837       37.32142
O         86.64878       46.75598       36.81891
C         88.81001       45.54528       39.16683
C         89.65366       46.71746       38.65247
C         91.07844       46.57840       39.10913
O         91.74488       45.61361       38.76861
O         91.62622       47.51855       39.90285
H         85.75841       45.09752       40.15348
H         87.00410       46.68598       39.19515
H         89.23334       44.60596       38.75713
H         88.89716       45.52135       40.27634
H         89.23901       47.66850       39.05163
H         89.62792       46.75498       37.54252
N         87.18918       44.60283       36.54817
C         86.90819       44.56371       35.11578
C         85.48515       45.01810       34.86541
O         85.28365       45.91648       34.05995
C         87.10515       43.13228       34.56872
C         88.52336       42.56854       34.76447
C         89.58039       43.22883       33.92839
O         90.26411       42.46608       33.06004
O         89.87900       44.40108       34.08417
H         87.48035       43.73972       37.00731
H         87.59662       45.24754       34.57466
H         86.85036       43.09157       33.48624
H         86.40332       42.46076       35.10771
H         88.49223       41.49346       34.49178
H         88.83718       42.61046       35.82285
N         84.45632       44.48104       35.57993
C         83.08268       44.92157       35.45453
H         82.43819       44.05383       35.20778
H         82.75133       45.35422       36.42264
H         82.95493       45.69462       34.66793
H         84.65774       43.75504       36.28420
Ca        92.07414       43.02447       31.87630
O         91.89722       46.14579       32.10072
H         90.98607       46.43383       31.84239
H         91.83654       45.97100       33.07337
O         95.40353       42.04890       32.27812
H         94.72311       41.85207       31.58692
H         95.71362       41.15836       32.57923
O         93.00640       43.69263       34.86507
H         92.89788       42.86933       35.40269
H         93.05541       44.42027       35.53455
O         94.90220       45.11754       32.61524
H         94.40399       45.54586       33.35552
H         95.76387       45.60378       32.58442

Ca 1.0



