%chk=apoCaM-CA-Ng.loop3.water3.frame695.chk
%nprocshared=20
%mem=10GB
%nosave
#b3lyp/svp scf=(tight,noincore,xqc) Test 
#IOP(5/87=12) Density=Current Pop=(MK,readradii) iop(6/33=2) iop(6/42=6)

apoCaM-CA-Ng.loop3.water3.frame695 

   0  1 
C         96.26030       95.83950       91.87792
C         97.57222       96.46585       91.49736
O         97.65270       97.68305       91.42285
H         95.47708       96.11751       91.14456
H         96.33481       94.73109       91.91433
H         95.96308       96.19437       92.88781
N         98.66409       95.68355       91.28766
C         99.99547       96.21712       91.03152
C        100.08680       96.84567       89.64202
O         99.77884       96.16888       88.67046
C        101.02463       95.07880       91.19576
C        102.43082       95.56635       91.36377
O        103.33499       94.75458       91.47353
O        102.71642       96.87771       91.44304
H         98.55492       94.66313       91.40014
H        100.21668       96.96253       91.81921
H        100.95228       94.38293       90.33176
H        100.80123       94.50068       92.11429
N        100.52484       98.12940       89.47048
C        100.62331       98.77755       88.15495
C        101.54849       98.04192       87.18723
O        101.41612       98.25446       85.98984
C        101.12407      100.23641       88.29804
C        100.08857      101.15091       88.97924
C        100.60890      102.58035       89.22443
C        101.65407      102.63933       90.35222
N        102.10833      104.00891       90.58936
H        100.79488       98.66381       90.31056
H         99.61088       98.78029       87.69329
H        101.32781      100.67225       87.29420
H        102.08246      100.21250       88.85777
H         99.74455      100.72797       89.94309
H         99.20863      101.20982       88.30195
H         99.74731      103.21042       89.53554
H        101.02237      103.00130       88.28186
H        102.53307      102.01702       90.09982
H        101.19702      102.24327       91.28496
H        102.60302      104.37119       89.74228
H        101.29840      104.62852       90.82098
H        102.77474      104.01097       91.39589
N        102.54909       97.23090       87.62612
C        103.48764       96.53903       86.74198
C        103.55344       95.04832       87.07180
O        103.42222       94.24957       86.15414
C        104.85076       97.29005       86.69773
C        105.33932       97.81379       88.01675
O        105.77961       96.99216       88.97107
O        105.25779       99.00813       88.25793
H        102.69807       97.15587       88.64140
H        103.14946       96.58596       85.68122
H        104.66244       98.19704       86.08077
H        105.63308       96.70177       86.17127
N        103.71609       94.59594       88.34783
C        103.81976       93.18081       88.71006
C        105.14836       92.85691       89.38150
O        105.42469       91.68762       89.60608
H        103.76162       95.29024       89.09861
H        103.74316       92.54281       87.80288
H        102.98348       92.89920       89.38501
N        106.03478       93.84547       89.68758
C        107.40407       93.67229       90.13440
C        107.63294       94.39067       91.45964
O        107.25770       95.54762       91.59526
C        108.32516       94.32451       89.07746
C        108.21273       93.73488       87.68831
N        108.91115       94.28964       86.67188
O        107.49382       92.77137       87.46706
H        105.76584       94.81005       89.53145
H        107.67724       92.59720       90.22214
H        109.38311       94.24228       89.40611
H        108.06810       95.40466       89.00223
H        109.51342       95.10955       86.83640
H        108.84017       93.90865       85.71681
N        108.34612       93.78440       92.44656
C        108.74596       94.43613       93.68601
C        107.58621       94.71628       94.61639
O        106.80694       93.81215       94.87980
H        108.70284       92.83138       92.28007
H        109.32615       95.36029       93.46306
H        109.42853       93.74545       94.22448
N        107.46732       95.93213       95.22909
C        106.41830       96.24536       96.20409
C        105.04054       96.30817       95.56332
O        104.92234       96.11908       94.36015
C        106.72060       97.60062       96.90200
C        107.84714       97.51918       97.90309
C        107.71744       96.68913       99.03255
C        109.00205       98.30387       97.76086
C        108.72136       96.64762      100.00198
C        110.00754       98.26047       98.73435
C        109.86952       97.43736       99.85839
O        110.83852       97.42001      100.79596
H        108.18806       96.64496       95.03427
H        106.38150       95.44726       96.97648
H        105.85349       97.94880       97.49685
H        106.90514       98.37809       96.13074
H        106.82948       96.08563       99.17486
H        109.11908       98.95868       96.90691
H        108.59929       96.00993      100.86903
H        110.89034       98.87648       98.62115
H        110.77039       96.87829      101.59560
N        103.94742       96.58106       96.34529
C        102.56710       96.71427       95.88613
C        102.42287       97.86841       94.90258
O        103.07729       97.86643       93.87513
C        102.01485       95.37266       95.31967
C        100.55877       95.49626       94.78834
C        102.10638       94.26119       96.38143
C         99.49961       95.93180       95.80557
H        104.09129       96.70478       97.35873
H        101.94448       96.95088       96.77574
H        102.63615       95.05859       94.45390
H        100.24525       94.51407       94.37482
H        100.54566       96.22747       93.95788
H        101.72004       93.30366       95.97237
H        103.16013       94.09841       96.68959
H        101.52134       94.52454       97.28767
H         99.41587       95.20570       96.63771
H         99.71718       96.93366       96.21785
H         98.51437       95.99084       95.29589
N        101.51326       98.86082       95.13323
C        101.22516       99.91004       94.15950
C        101.33905      101.31461       94.73929
O        101.20769      102.26083       93.97112
C         99.80394       99.67141       93.62822
O         99.50543      100.56164       92.58919
H        100.93601       98.81780       95.98357
H        101.92738       99.83845       93.30358
H         99.06488       99.79028       94.45119
H         99.75074       98.62775       93.25180
H         98.73348      100.17178       92.10239
N        101.52003      101.55266       96.07049
C        101.50449      102.90506       96.62305
C        102.73957      103.69739       96.21435
O        103.67472      103.09117       95.70968
C        101.43104      102.82602       98.14896
H        101.58972      100.75992       96.72459
H        100.58643      103.40475       96.24464
H        100.51113      102.28172       98.45338
H        102.31526      102.28971       98.55591
H        101.40395      103.83375       98.58889
N        102.86144      105.05160       96.38297
C        101.82494      105.97507       96.84978
C        102.31611      106.75223       98.07169
O        103.44914      107.21212       98.02816
C        101.51069      106.95409       95.71890
H        103.75719      105.47685       96.09238
H        100.88912      105.43890       97.06028
H        101.15129      106.39299       94.82931
H        100.71332      107.65966       96.03587
H        102.41469      107.53327       95.43223
N        101.58250      106.95822       99.21148
C        100.17280      106.62423       99.40766
C        100.00428      105.40740      100.29986
O         98.87527      104.95929      100.45364
C         99.42892      107.81504      100.05796
C         99.46599      109.10180       99.22485
C         98.76976      110.21511       99.96060
O         99.38137      111.22656      100.26633
O         97.46921      110.10014      100.29343
H        102.05889      107.42592       99.99993
H         99.68030      106.40029       98.44353
H         99.88922      108.01907      101.05141
H         98.36373      107.53648      100.22245
H         98.95909      108.93654       98.25047
H        100.52041      109.39615       99.03265
N        101.05975      104.80550      100.91788
C        100.88965      103.62363      101.73217
H        100.19139      103.83492      102.56916
H        100.48544      102.79602      101.11093
H        101.86889      103.30876      102.14966
H        102.01395      105.17851      100.81404
Ca       104.81562       97.41913       90.92747
O        107.34054       99.19587       90.87167
H        107.56350       98.91179       89.95013
H        107.33103      100.18500       90.83187
O        103.66112      100.04055       91.31769
H        104.24001      100.29045       90.55459
H        103.97966      100.60498       92.06565
O        105.91731       99.13275       93.59343
H        105.62002       99.78873       94.27297
H        106.89032       99.03514       93.74863

Ca 1.0



