%chk=apoCaM-CA-Ng.loop2.water4.frame1411.chk
%nprocshared=20
%mem=10GB
%nosave
#b3lyp/svp scf=(tight,noincore,xqc) Test 
#IOP(5/87=12) Density=Current Pop=(MK,readradii) iop(6/33=2) iop(6/42=6)

apoCaM-CA-Ng.loop2.water4.frame1411 

   -2  1 
C         78.52310       80.92113      105.11453
C         78.23091       80.08681      103.89235
O         79.18201       79.51275      103.38173
H         79.26150       81.70514      104.84941
H         77.66177       81.41852      105.58402
H         78.96881       80.26226      105.88978
N         76.99207       79.90071      103.34437
C         75.72906       80.48281      103.80592
C         74.95961       81.21038      102.70343
O         73.90343       81.74897      103.00709
C         74.86115       79.38690      104.46847
C         74.50317       78.21271      103.60072
O         74.88022       78.13819      102.44507
O         73.75822       77.21790      104.11732
H         76.95396       79.24864      102.54719
H         75.89568       81.24285      104.58277
H         73.91713       79.84331      104.83722
H         75.41427       78.99122      105.34631
N         75.40528       81.28496      101.41539
C         74.66266       81.97019      100.36119
C         73.28444       81.35526      100.16674
O         72.31060       82.09441      100.13989
C         75.44748       81.93082       99.04205
H         76.30186       80.84701      101.16176
H         74.55081       83.04639      100.62590
H         76.43800       82.41780       99.17881
H         75.60669       80.88757       98.69711
H         74.90005       82.49233       98.25383
N         73.13377       80.00541      100.03426
C         71.85788       79.34596       99.76424
C         71.28242       78.49793      100.96884
O         72.19432       77.76336      101.74108
C         71.86398       78.63283       98.37143
C         73.17723       78.19385       97.71950
O         73.99477       77.27066       98.25599
O         73.48584       78.67289       96.63951
H         73.97469       79.41650      100.10974
H         71.05106       80.10308       99.63152
H         71.45792       79.38165       97.65275
H         71.11973       77.81120       98.37477
N         70.40405       79.31862      101.82824
C         70.03175       78.74580      103.13538
C         69.48782       77.33412      103.08952
O         70.04126       76.48639      103.77607
H         70.86588       80.23854      102.02169
H         69.24817       79.39400      103.58281
H         70.91183       78.77885      103.81819
N         68.39935       77.00541      102.33309
C         67.82105       75.66053      102.32763
C         68.04720       75.01236      100.97652
O         67.10314       74.56047      100.34035
C         66.31747       75.72895      102.67797
C         66.06665       76.34010      104.03119
N         65.33998       77.47660      104.14998
O         66.51331       75.79845      105.03108
H         67.97148       77.72868      101.73490
H         68.32857       75.00890      103.07251
H         65.88110       74.70594      102.67180
H         65.79810       76.32573      101.89520
H         64.95327       77.94825      103.31898
H         65.16159       77.88943      105.07712
N         69.30444       74.95673      100.46159
C         69.56275       74.38192       99.15057
C         70.91893       74.76989       98.59622
O         71.66585       75.45033       99.27619
H         70.06751       75.39145      101.00009
H         68.82189       74.80628       98.44368
H         69.43762       73.27869       99.19811
N         71.31060       74.44998       97.33026
C         70.55176       73.60768       96.41128
C         71.37666       72.42740       95.91592
O         70.81851       71.62161       95.18633
C         70.02698       74.43300       95.21211
C         69.05449       75.53817       95.64884
O         71.08386       74.95904       94.44707
H         72.20058       74.85355       96.99802
H         69.66779       73.17248       96.92033
H         69.44301       73.75312       94.55314
H         71.48981       75.70769       94.95577
H         69.55656       76.27152       96.31508
H         68.66656       76.07215       94.75686
H         68.19034       75.09369       96.18737
N         72.69335       72.25467       96.25117
C         73.50273       71.11928       95.82437
C         74.04228       70.45117       97.08754
O         74.78491       71.11501       97.79799
C         74.67192       71.61482       94.91523
C         74.19080       72.46635       93.70754
C         75.55108       70.44318       94.44265
C         73.28242       71.74225       92.70990
H         73.17094       72.94825       96.84136
H         72.90380       70.40920       95.22630
H         75.32021       72.29065       95.51802
H         75.08247       72.83524       93.15407
H         73.65118       73.36183       94.08432
H         74.96360       69.71049       93.85204
H         76.39124       70.81910       93.82000
H         75.98818       69.91253       95.31160
H         73.79822       70.87533       92.25122
H         72.34904       71.39767       93.19202
H         73.00396       72.44503       91.89633
N         73.75865       69.17263       97.47886
C         72.87133       68.23093       96.80810
C         72.98347       66.84376       97.42543
O         72.91877       66.71642       98.64245
C         71.39144       68.66370       96.89669
C         70.87684       68.76271       98.30731
O         71.41703       69.64575       99.16844
O         69.96176       68.04365       98.67545
H         74.20692       68.85490       98.34748
H         73.15944       68.15771       95.73588
H         70.78445       67.92086       96.33159
H         71.23449       69.63477       96.41926
N         73.04385       65.74721       96.62310
C         72.99182       64.38159       97.12329
C         74.17360       63.58989       96.57803
O         74.36706       63.60735       95.36695
C         71.67318       63.73047       96.65711
C         71.53737       62.32823       97.20165
C         71.84705       61.22693       96.38806
C         71.13221       62.10886       98.53138
C         71.76693       59.92861       96.89733
C         71.04099       60.80567       99.03334
C         71.36290       59.71720       98.21788
H         73.04388       65.88350       95.59936
H         72.97783       64.37445       98.23168
H         71.65850       63.71576       95.54545
H         70.79376       64.33067       96.98184
H         72.17313       61.37632       95.36670
H         70.88846       62.94371       99.17726
H         72.02349       59.08685       96.26792
H         70.72701       60.63838      100.05593
H         71.30175       58.70981       98.60888
N         74.97257       62.81015       97.36638
C         74.77679       62.58391       98.78904
C         75.32847       63.70177       99.65525
O         75.07353       63.65907      100.85127
C         75.50281       61.25640       99.02362
C         76.68018       61.37460       98.07429
C         76.01590       61.95975       96.83168
H         73.71035       62.42954       99.03735
H         75.74875       61.02767      100.08236
H         74.85780       60.43561       98.63083
H         77.37315       62.13653       98.49670
H         77.24823       60.43867       97.88907
H         76.76068       62.51395       96.22000
H         75.53170       61.16729       96.21730
N         76.11140       64.70451       99.15705
C         76.65456       65.77742       99.99063
C         77.44741       65.19084      101.15357
O         78.43752       64.51838      100.90234
C         77.59259       66.69402       99.16811
C         76.84237       67.51462       98.11697
C         77.78998       68.28579       97.24553
O         77.79769       68.10183       96.03872
O         78.63105       69.18777       97.78615
H         76.35679       64.68770       98.15625
H         75.80968       66.38720      100.36945
H         78.36778       66.06395       98.67786
H         78.10492       67.41233       99.84757
H         76.19573       68.22975       98.65233
H         76.21557       66.85928       97.47563
N         77.09141       65.37382      102.45943
C         75.92610       66.12061      102.88994
H         75.00012       65.66141      102.48416
H         75.85478       66.10473      103.99819
H         75.99817       67.17759      102.55849
H         77.67637       64.94519      103.19327
Ca        73.68985       76.86530      100.37339
O         74.18380       73.51095      100.06252
H         73.43558       72.98063       99.68952
H         74.99868       73.02228       99.78437
O         72.75748       74.50746      102.72876
H         71.81488       74.78722      102.61989
H         72.92038       74.56187      103.70382
O         75.90910       74.67158      102.69392
H         76.53790       74.03838      103.12271
H         75.63864       75.28262      103.42418
O         76.41718       75.70268       99.55445
H         77.25645       76.20406       99.70956
H         76.70340       74.87031       99.10130

Ca 1.0



