%chk=apoCaM-CA-Ng.loop4.water7.frame855.chk
%nprocshared=20
%mem=10GB
%nosave
#b3lyp/svp scf=(tight,noincore,xqc) Test 
#IOP(5/87=12) Density=Current Pop=(MK,readradii) iop(6/33=2) iop(6/42=6)

apoCaM-CA-Ng.loop4.water7.frame855 

   -3  1 
C         61.20460       76.24338      -24.02259
C         61.01347       77.01910      -25.29118
O         61.59259       76.65833      -26.30575
H         61.64575       76.90096      -23.24470
H         60.22343       75.86307      -23.66767
H         61.87838       75.37787      -24.18819
N         60.18036       78.09871      -25.30417
C         59.89470       78.90983      -26.48317
C         59.32095       78.02723      -27.58311
O         59.85949       77.98236      -28.67943
C         61.16002       79.69871      -26.90775
C         60.92473       80.71534      -27.99796
O         59.81664       80.88688      -28.48240
O         61.95760       81.45987      -28.43539
H         59.69300       78.34773      -24.42923
H         59.12022       79.65629      -26.19594
H         61.95155       78.99585      -27.24302
H         61.54308       80.25193      -26.02303
N         58.24657       77.23588      -27.31563
C         57.70615       76.27980      -28.27921
C         56.91336       77.01121      -29.36615
O         56.12480       77.86969      -28.99493
C         56.85378       75.17132      -27.57515
C         55.52399       75.69114      -26.96264
C         57.72485       74.43673      -26.52914
C         54.67393       74.59010      -26.32367
H         57.86157       77.26311      -26.36038
H         58.56284       75.72311      -28.69772
H         56.58781       74.42605      -28.35854
H         54.90404       76.12810      -27.77189
H         55.71441       76.47604      -26.20182
H         57.20574       73.54590      -26.12424
H         58.66441       74.07136      -26.99549
H         57.99039       75.10009      -25.67948
H         53.70719       75.01901      -25.98602
H         54.46729       73.78330      -27.05877
H         55.17510       74.16111      -25.43243
N         56.98351       76.75234      -30.71036
C         57.80064       75.74711      -31.38201
C         58.64135       76.44658      -32.44524
O         58.55263       76.11689      -33.62091
C         56.84383       74.68526      -31.97725
C         57.52834       73.50691      -32.62091
O         56.85101       72.62533      -33.12459
O         58.87151       73.39968      -32.64109
H         56.35751       77.30286      -31.32123
H         58.47806       75.23148      -30.68368
H         56.17980       75.17302      -32.72584
H         56.20234       74.28895      -31.15967
N         59.43711       77.49297      -32.09458
C         60.14740       78.30277      -33.06918
C         61.40665       77.67565      -33.63085
O         62.02565       78.32486      -34.46184
H         59.44549       77.80120      -31.11315
H         60.47505       79.24133      -32.56993
H         59.44909       78.59023      -33.88417
N         61.90915       76.49059      -33.17433
C         63.24068       76.01078      -33.54087
C         63.27850       74.58221      -34.07425
O         64.01115       74.36201      -35.03059
C         64.21979       76.24723      -32.36914
C         63.74010       75.77795      -31.01994
O         63.56431       76.67653      -30.03190
O         63.51240       74.60244      -30.80062
H         61.40102       75.98004      -32.43862
H         63.67770       76.63062      -34.35766
H         64.36164       77.34844      -32.28525
H         65.21271       75.80847      -32.61159
N         62.56259       73.55258      -33.53367
C         62.71783       72.18233      -34.02015
C         64.04184       71.55322      -33.59132
O         64.35423       70.46152      -34.04092
H         61.89064       73.73408      -32.77448
H         62.61360       72.17495      -35.12705
H         61.91037       71.54169      -33.60377
N         64.81413       72.15331      -32.64325
C         66.02518       71.62806      -32.02565
C         65.81743       70.24037      -31.44302
O         66.66418       69.36995      -31.59885
C         67.27148       71.76096      -32.91816
C         67.37555       73.17556      -33.51883
C         68.70759       73.46700      -34.16171
N         68.89756       74.64687      -34.79530
O         69.62312       72.65867      -34.10305
H         64.48997       73.03494      -32.24169
H         66.22095       72.29448      -31.15267
H         67.26294       71.01732      -33.74349
H         68.15246       71.56217      -32.26609
H         67.21727       73.94103      -32.72844
H         66.57473       73.28488      -34.28243
H         68.13284       75.33508      -34.86207
H         69.80632       74.87090      -35.22652
N         64.68876       69.98699      -30.73083
C         64.41401       68.74525      -30.01521
C         64.24274       69.02477      -28.52778
O         64.67368       68.20696      -27.72982
C         63.19449       67.97703      -30.60133
C         61.90854       68.81677      -30.66400
C         63.52315       67.42043      -31.99457
H         63.98695       70.73835      -30.69595
H         65.27899       68.04758      -30.09613
H         62.99977       67.09733      -29.94677
H         61.06921       68.19352      -31.04113
H         61.62811       69.18736      -29.65769
H         62.02799       69.67919      -31.35327
H         63.73542       68.23789      -32.71242
H         64.41062       66.75312      -31.93964
H         62.67283       66.81700      -32.37919
N         63.64001       70.16880      -28.08423
C         63.45346       70.50237      -26.68245
C         64.18987       71.79747      -26.37944
O         64.17120       72.70424      -27.19655
C         61.94566       70.62713      -26.41608
C         61.63100       70.73408      -24.94320
N         60.92175       69.75953      -24.32521
O         62.01659       71.70014      -24.30224
H         63.27477       70.85323      -28.75581
H         63.83797       69.68922      -26.02773
H         61.46423       69.70625      -26.81121
H         61.51887       71.49365      -26.96656
H         60.59029       68.93372      -24.84585
H         60.70752       69.82323      -23.31949
N         64.86370       71.93833      -25.20429
C         65.63320       73.12808      -24.84522
C         66.22352       72.91809      -23.47016
O         65.46158       72.63749      -22.55738
C         64.77493       74.42347      -24.79115
C         65.67224       75.62285      -24.55355
C         65.61993       76.34470      -23.34878
C         66.59401       76.01141      -25.54267
C         66.49128       77.41928      -23.13100
C         67.45479       77.09028      -25.32757
C         67.41376       77.79294      -24.12030
O         68.26561       78.81963      -23.92294
H         64.83145       71.14938      -24.54078
H         66.43860       73.26108      -25.59835
H         64.02083       74.32051      -23.98057
H         64.22052       74.60952      -25.73205
H         64.92131       76.06618      -22.57107
H         66.64796       75.47632      -26.48262
H         66.45366       77.95728      -22.19215
H         68.16030       77.37473      -26.09871
H         68.28427       79.32390      -23.09726
N         67.55459       73.08839      -23.23460
C         68.12201       72.94926      -21.90283
C         68.51865       74.32638      -21.41156
O         69.49541       74.85741      -21.91776
C         69.26312       71.89979      -21.93601
C         69.91227       71.56957      -20.57374
C         70.96768       72.53264      -20.08806
O         71.35045       73.46554      -20.77307
O         71.56473       72.30556      -18.90331
H         68.17092       73.38055      -24.00738
H         67.36639       72.53510      -21.22494
H         70.04678       72.16023      -22.68073
H         68.77988       70.96133      -22.28877
H         70.43629       70.59454      -20.67304
H         69.11501       71.45100      -19.80966
N         67.78508       75.04775      -20.50520
C         66.45583       74.70077      -19.98830
C         66.41949       73.43478      -19.15019
O         67.22506       73.27608      -18.24374
C         65.82615       75.88767      -19.22353
C         66.52305       76.26153      -17.90766
C         65.87027       77.46802      -17.30034
O         64.56574       77.43666      -16.96455
O         66.52010       78.48252      -17.10616
H         68.15536       75.98054      -20.26444
H         65.78584       74.56552      -20.86290
H         64.76244       75.64180      -19.00382
H         65.83363       76.76881      -19.90265
H         67.59599       76.47872      -18.09099
H         66.44736       75.42632      -17.18163
N         65.47182       72.48833      -19.40648
C         65.37837       71.24961      -18.66892
H         64.51474       70.65656      -19.04221
H         66.30408       70.65470      -18.81379
H         65.22442       71.45706      -17.58948
H         64.77422       72.65490      -20.14657
Ca        64.35369       80.40669      -17.88144
O         67.10521       81.71753      -17.23681
H         67.67247       81.32043      -17.94454
H         67.42768       81.30073      -16.39879
O         61.95548       79.52960      -16.27080
H         62.28723       79.23209      -15.38676
H         61.36725       78.79442      -16.57653
O         65.67731       81.64706      -20.22724
H         65.99847       81.17531      -21.03608
H         65.07958       82.35755      -20.57106
O         61.81489       81.43935      -19.24595
H         61.13214       81.33858      -18.53598
H         61.75099       80.60294      -19.77195
O         64.86482       80.42116      -14.82467
H         64.98128       79.44120      -14.74425
H         65.74157       80.79780      -14.56167
O         63.86911       78.67605      -20.26719
H         63.61228       78.89887      -21.19672
H         63.39371       77.82996      -20.07148
O         63.50267       82.93196      -16.67095
H         64.18524       83.64877      -16.69020
H         62.77211       83.29375      -16.10977

Ca 1.0



