%chk=apoCaM-CA-Ng.loop4.water4.frame287.chk
%nprocshared=20
%mem=10GB
%nosave
#b3lyp/svp scf=(tight,noincore,xqc) Test 
#IOP(5/87=12) Density=Current Pop=(MK,readradii) iop(6/33=2) iop(6/42=6)

apoCaM-CA-Ng.loop4.water4.frame287 

   -3  1 
C         37.90200       35.57409       24.15163
C         37.57373       34.85376       22.87927
O         38.48258       34.30568       22.27496
H         38.62973       36.38508       23.93849
H         36.99625       36.02001       24.61223
H         38.35420       34.86030       24.87207
N         36.28704       34.79050       22.42463
C         35.87635       34.10639       21.20306
C         36.27983       32.64508       21.25173
O         37.08063       32.22199       20.44163
C         36.28790       34.89082       19.92176
C         37.75663       35.11579       19.67122
O         38.50658       34.18072       19.44505
O         38.24196       36.37160       19.63792
H         35.54325       35.22689       22.99029
H         34.76341       34.11440       21.15936
H         35.80279       35.88956       19.98744
H         35.86073       34.37740       19.03245
N         35.73983       31.82856       22.20732
C         36.00376       30.39794       22.40581
C         35.49001       29.55835       21.23354
O         34.48563       28.88258       21.41210
C         37.48204       30.12543       22.80616
C         37.79149       28.61733       23.01870
C         37.85812       30.93621       24.06234
C         36.95922       27.91528       24.09358
H         35.07119       32.25947       22.86511
H         35.38223       30.10095       23.28118
H         38.13980       30.47505       21.98479
H         38.86339       28.50526       23.29221
H         37.63423       28.07693       22.06316
H         37.73466       32.02372       23.88065
H         37.21784       30.66183       24.92631
H         38.91954       30.75962       24.33532
H         37.27005       26.85123       24.15035
H         37.11875       28.37352       25.09016
H         35.88045       27.93582       23.83975
N         36.08868       29.56130       20.00780
C         35.52207       28.88579       18.84798
C         35.57581       27.36162       18.99852
O         34.49989       26.78167       19.04218
C         36.13723       29.43653       17.54211
C         35.81995       30.89192       17.29671
O         36.25010       31.43625       16.29271
O         35.06714       31.60367       18.15919
H         36.95189       30.09124       19.86645
H         34.44448       29.16456       18.77710
H         35.73839       28.85810       16.68090
H         37.23466       29.37081       17.57250
N         36.71038       26.60484       19.13645
C         38.08366       27.07799       19.11185
C         38.58924       27.33005       17.71087
O         37.83397       27.13051       16.76923
H         36.58312       25.59696       19.32211
H         38.73106       26.27496       19.51177
H         38.16731       27.96655       19.75687
N         39.85945       27.75437       17.44344
C         40.93812       27.93272       18.41758
C         40.68106       29.02439       19.48024
O         39.81559       30.05545       19.08168
C         42.25683       28.30160       17.71162
C         42.71517       27.20995       16.78609
O         42.86610       27.43501       15.59650
O         42.97588       25.97982       17.27034
H         40.08947       27.90871       16.44890
H         41.12116       26.96349       18.93062
H         43.05730       28.44650       18.47078
H         42.12997       29.25784       17.15718
N         40.33457       28.48625       20.79868
C         41.50205       27.85455       21.44391
C         41.20674       26.41172       21.74360
O         40.10209       25.95732       21.48630
H         40.02222       29.27170       21.40582
H         41.74140       28.36814       22.40289
H         42.41594       27.90765       20.81054
N         42.15488       25.62810       22.32506
C         41.89783       24.24241       22.70202
C         41.81014       24.08898       24.21079
O         41.48498       22.99556       24.65471
C         42.90030       23.27631       22.03689
C         44.36858       23.50412       22.42144
C         45.24433       22.45668       21.77665
N         46.20965       22.80185       20.89237
O         45.07732       21.27837       22.05606
H         43.06858       26.04895       22.55285
H         40.89573       23.93091       22.33508
H         42.80501       23.37122       20.93225
H         42.60869       22.23874       22.31358
H         44.48436       23.44047       23.52178
H         44.68791       24.51499       22.09303
H         46.36843       23.78681       20.63603
H         46.79871       22.07742       20.45456
N         42.00712       25.14436       25.05875
C         41.74377       25.07695       26.49125
C         42.99686       25.24987       27.32942
O         42.88680       25.08600       28.53654
C         40.63978       26.10124       26.89118
C         39.31308       25.76695       26.19438
C         41.02984       27.56054       26.58910
H         42.30950       26.05117       24.68138
H         41.36583       24.06520       26.75831
H         40.46796       26.01558       27.98698
H         38.51752       26.46746       26.52655
H         39.41332       25.84206       25.09028
H         38.99405       24.73536       26.45462
H         41.14126       27.73250       25.49922
H         40.23815       28.25008       26.95205
H         41.97944       27.82911       27.09704
N         44.21853       25.53854       26.78688
C         45.43454       25.56103       27.58902
C         46.05356       26.93785       27.63303
O         46.23265       27.44329       28.73383
C         46.45450       24.53935       27.05011
C         45.89588       23.13803       27.04272
N         45.83115       22.42827       25.89236
O         45.50537       22.63581       28.08619
H         44.31136       25.70668       25.77566
H         45.21871       25.26862       28.64183
H         47.35717       24.55111       27.69972
H         46.76863       24.82529       26.02332
H         46.17113       22.82798       25.00633
H         45.44838       21.47141       25.88722
N         46.46699       27.58323       26.50078
C         47.27115       28.80198       26.56288
C         46.61753       29.98327       25.87141
O         45.71066       29.80389       25.07155
C         48.64309       28.52491       25.90885
C         49.29374       27.27259       26.45744
C         49.65131       27.17854       27.81221
C         49.53158       26.17454       25.60964
C         50.23062       26.00591       28.30989
C         50.10994       25.00472       26.10908
C         50.46021       24.91433       27.45896
O         51.01308       23.77643       27.92549
H         46.29013       27.15537       25.57871
H         47.43400       29.09351       27.62253
H         49.32242       29.39394       26.04323
H         48.47925       28.39431       24.81510
H         49.47717       28.00941       28.48333
H         49.26230       26.21696       24.56143
H         50.49776       25.94551       29.35708
H         50.28209       24.16589       25.44576
H         51.26738       23.66949       28.85306
N         47.07731       31.24224       26.14203
C         46.66858       32.47634       25.47167
C         45.19652       32.86304       25.66780
O         44.80459       33.89680       25.14736
C         47.11724       32.40904       23.98980
C         47.09823       33.77239       23.27314
C         47.72668       33.67661       21.91305
O         47.08299       33.96111       20.91593
O         49.01460       33.30107       21.78900
H         47.82384       31.33540       26.84856
H         47.26195       33.29781       25.93331
H         46.51711       31.66482       23.42391
H         48.17672       32.06635       23.99627
H         47.67975       34.51263       23.86508
H         46.06047       34.14271       23.16026
N         44.33383       32.14174       26.44294
C         42.93436       32.52000       26.64172
C         42.73605       32.88198       28.09741
O         42.35449       34.00913       28.38186
C         41.99698       31.36457       26.22723
C         42.24280       30.86479       24.79804
C         41.78948       31.75437       23.67505
O         41.14215       31.14098       22.67079
O         42.17114       32.90728       23.55994
H         44.66954       31.30418       26.93568
H         42.66701       33.40833       26.02920
H         40.92830       31.64493       26.35914
H         42.20419       30.50107       26.89423
H         41.70417       29.90073       24.67741
H         43.31757       30.64123       24.66132
N         43.00707       31.98060       29.08280
C         42.87902       32.30995       30.48418
H         43.55965       33.15130       30.73574
H         41.83134       32.59422       30.71557
H         43.15927       31.43192       31.10435
H         43.33163       31.03325       28.83883
Ca        40.49774       31.64173       20.57442
O         43.36286       31.27186       19.87862
H         43.40642       32.08448       20.44320
H         43.34121       31.61539       18.95015
O         41.42065       34.32498       17.92267
H         40.90171       35.15381       17.76637
H         41.69377       34.02816       17.01863
O         41.19167       35.02260       20.80777
H         40.84584       35.76614       21.36238
H         41.81848       34.53818       21.40084
O         39.74465       31.96493       16.88495
H         38.83578       32.08751       17.25816
H         39.75999       31.02738       16.56667

Ca 1.0



