%chk=apoCaM-CA-Ng.loop2.water3.frame518.chk
%nprocshared=20
%mem=10GB
%nosave
#b3lyp/svp scf=(tight,noincore,xqc) Test 
#IOP(5/87=12) Density=Current Pop=(MK,readradii) iop(6/33=2) iop(6/42=6)

apoCaM-CA-Ng.loop2.water3.frame518 

   -2  1 
C         67.73180       94.83343       55.98686
C         67.68487       94.86890       54.48479
O         67.39628       95.91712       53.92578
H         68.48527       95.55892       56.35727
H         66.73510       95.10066       56.39738
H         68.00213       93.82323       56.36204
N         67.94214       93.74427       53.76137
C         67.87789       93.69675       52.30524
C         68.93584       94.59032       51.67561
O         70.11236       94.42639       51.96618
C         68.06342       92.24629       51.81601
C         67.90581       92.14125       50.32285
O         66.74794       92.50489       49.73781
O         68.82443       91.72565       49.63528
H         68.16063       92.87518       54.27363
H         66.85948       94.01760       51.98909
H         67.29180       91.59969       52.28745
H         69.06532       91.87131       52.12202
N         68.57801       95.51722       50.74296
C         69.54300       96.35186       50.02503
C         70.19571       97.36712       50.96439
O         69.69441       97.52557       52.06859
C         68.78938       97.06721       48.88689
H         67.57898       95.58275       50.49123
H         70.31048       95.68220       49.58380
H         67.99362       97.71935       49.30592
H         69.41890       97.68955       48.23687
H         68.31467       96.30837       48.22888
N         71.28333       98.13532       50.63633
C         72.07075       98.04073       49.40399
C         72.84864       96.73386       49.29852
O         72.89095       95.95832       50.24462
C         73.01201       99.26682       49.25491
C         74.02983       99.43963       50.34937
O         74.10387       98.57124       51.37152
O         74.79458      100.39030       50.31487
H         71.56346       98.84695       51.32968
H         71.40138       98.10226       48.53772
H         72.38384      100.18319       49.22610
H         73.55597       99.20675       48.28861
N         73.49468       96.44102       48.13368
C         74.29132       95.24789       47.89781
C         73.49183       93.95722       47.94603
O         72.30586       93.99536       48.23769
H         73.43795       97.11682       47.35776
H         75.11658       95.20006       48.64144
H         74.73043       95.34026       46.88226
N         74.06843       92.74231       47.69647
C         75.45754       92.54982       47.28839
C         76.29551       91.98853       48.42909
O         77.49925       91.85540       48.26074
C         75.48292       91.65382       46.02900
C         76.84300       91.55756       45.38433
N         77.43792       92.65738       44.86482
O         77.40151       90.47347       45.30777
H         73.48458       91.89745       47.81245
H         75.92011       93.52026       47.03271
H         74.78884       92.06925       45.26616
H         75.11683       90.63930       46.30481
H         76.97168       93.57572       44.89944
H         78.36070       92.58954       44.41084
N         75.74073       91.68337       49.63917
C         76.52124       91.26488       50.78543
C         77.40861       92.38705       51.25750
O         78.61263       92.19291       51.35402
H         74.72591       91.76508       49.78525
H         77.10577       90.35032       50.54240
H         75.82964       91.01970       51.62024
N         76.86512       93.59885       51.57536
C         77.64217       94.72085       52.09555
C         77.11569       95.12201       53.46867
O         75.99913       94.75253       53.81118
C         77.62354       95.90110       51.10359
C         78.23605       95.50181       49.75224
O         76.30284       96.34309       50.91837
H         75.84870       93.72976       51.44799
H         78.70164       94.40952       52.23301
H         78.24089       96.71640       51.53893
H         76.35128       97.19465       50.41038
H         78.24726       96.37594       49.06708
H         79.28217       95.15501       49.89090
H         77.64758       94.69160       49.27212
N         77.92979       95.75856       54.36328
C         77.56781       95.96215       55.76713
C         77.81346       97.41057       56.19654
O         78.93567       97.88746       56.09871
C         78.36523       94.94368       56.64681
C         78.07810       95.15295       58.15866
C         78.00270       93.50026       56.22329
C         78.86501       94.21563       59.07933
H         78.89437       95.98656       54.07466
H         76.49273       95.72893       55.93057
H         79.45362       95.09845       56.47522
H         76.99258       95.02935       58.36393
H         78.37704       96.18403       58.43794
H         78.59208       92.74663       56.78003
H         76.92042       93.30573       56.39190
H         78.23160       93.32414       55.15310
H         78.56571       93.15752       58.94055
H         79.95526       94.32086       58.89598
H         78.65636       94.47645       60.13773
N         76.80034       98.13025       56.76586
C         76.90992       99.47517       57.32254
C         76.81834       99.46836       58.84705
O         76.94434      100.53942       59.42444
C         75.73650      100.34271       56.81166
C         75.59677      100.27532       55.33072
O         74.51276       99.66673       54.81275
O         76.48577      100.68553       54.60501
H         75.88660       97.69178       56.83819
H         77.88639       99.92269       57.03383
H         75.83811      101.39851       57.14366
H         74.79439       99.93859       57.24522
N         76.59075       98.32635       59.57016
C         76.48146       98.31137       61.02473
C         75.14640       97.68629       61.45147
O         75.16110       96.66811       62.12912
C         77.70870       97.55740       61.59257
C         77.79834       97.63117       63.10083
C         77.92792       98.87643       63.74354
C         77.76955       96.46042       63.87899
C         78.01694       98.94854       65.13602
C         77.86038       96.53790       65.27310
C         77.98248       97.78064       65.90071
H         76.50532       97.42177       59.09027
H         76.51948       99.34359       61.42705
H         78.63562       98.01567       61.18365
H         77.67842       96.50144       61.24416
H         77.96360       99.79328       63.16930
H         77.67643       95.48900       63.40948
H         78.11477       99.91113       65.62148
H         77.83708       95.63415       65.86801
H         78.05303       97.83939       66.97917
N         73.93631       98.23954       61.11186
C         72.64056       97.71712       61.54498
C         72.33354       96.27319       61.17069
O         71.34584       95.74591       61.66432
C         71.63463       98.62446       60.82588
C         72.37480       99.93895       60.77923
C         73.78438       99.49093       60.40187
H         72.60596       97.83391       62.65151
H         71.53579       98.29044       59.76509
H         70.62214       98.65243       61.28160
H         71.94191      100.70853       60.10555
H         72.39563      100.33967       61.81851
H         73.88336       99.29028       59.31508
H         74.49338      100.27899       60.73232
N         73.09097       95.58818       60.26949
C         72.84184       94.19800       59.91509
C         73.22725       93.35534       61.10533
O         72.39328       92.62819       61.62607
C         73.62550       93.71031       58.65864
C         73.12265       94.28386       57.31115
C         73.56624       95.67699       56.99706
O         73.17258       96.22954       55.98481
O         74.45971       96.29622       57.76864
H         73.88579       96.06823       59.85895
H         71.76245       94.05617       59.67817
H         73.42195       92.61874       58.58788
H         74.72602       93.83018       58.76276
H         72.01392       94.22781       57.28363
H         73.51851       93.65431       56.48444
N         74.48926       93.43803       61.60975
C         74.90742       92.69214       62.77257
H         75.96007       92.94586       63.02107
H         74.26545       92.95663       63.63964
H         74.83569       91.60376       62.56883
H         75.17288       94.07149       61.16698
Ca        74.76718       97.62571       53.87560
O         71.75055       98.39561       54.18884
H         71.44800       99.24720       54.59287
H         71.00865       97.76251       54.35800
O         72.82421       95.16123       53.29104
H         72.01350       94.94679       53.81777
H         73.04234       94.32098       52.81540
O         77.18073       98.85769       52.61809
H         76.32745       99.34038       52.48959
H         77.64789       98.97223       51.75476

Ca 1.0



