%chk=apoCaM-CA-Ng.loop1.water3.frame1432.chk
%nprocshared=20
%mem=10GB
%nosave
#b3lyp/svp scf=(tight,noincore,xqc) Test 
#IOP(5/87=12) Density=Current Pop=(MK,readradii) iop(6/33=2) iop(6/42=6)

apoCaM-CA-Ng.loop1.water3.frame1432 

   0  1 
C         68.41523       66.43276       30.74890
C         68.93550       67.83567       30.82883
O         68.86838       68.53190       29.82657
H         67.33877       66.45713       30.47604
H         68.97261       65.87591       29.96637
H         68.52640       65.90125       31.71594
N         69.46584       68.32483       31.98936
C         69.97375       69.68805       32.11093
C         71.45695       69.69820       32.41239
O         71.89753       70.38401       33.32586
C         69.12954       70.50220       33.11889
C         69.14511       70.00033       34.54448
O         69.80179       69.02569       34.87613
O         68.42405       70.65278       35.47488
H         69.50901       67.70471       32.81040
H         69.88337       70.20207       31.14140
H         68.07674       70.50568       32.76420
H         69.49105       71.55378       33.11955
N         72.30126       68.95983       31.64479
C         73.74509       68.99921       31.81706
C         74.29990       70.36792       31.42791
O         74.98270       70.94531       32.26214
C         74.46026       67.81379       31.12870
C         73.92716       66.48264       31.70690
C         74.82466       65.27968       31.40234
C         74.23444       64.01115       32.04463
N         75.14062       62.87245       31.90958
H         71.89681       68.34483       30.92241
H         73.97078       68.84402       32.89819
H         75.54031       67.90219       31.38196
H         74.36405       67.82335       30.02251
H         72.89724       66.29767       31.33209
H         73.88424       66.56371       32.81584
H         75.82765       65.47374       31.84273
H         74.93430       65.13474       30.30630
H         73.25888       63.77383       31.56408
H         74.05167       64.18769       33.12896
H         74.69376       62.02972       32.33893
H         75.33784       62.68041       30.90148
H         76.03429       63.06972       32.41675
N         74.02637       71.02443       30.25596
C         73.17405       70.54495       29.16894
C         71.85074       71.30660       29.14164
O         71.67061       72.25277       29.89513
C         73.93033       70.59721       27.82828
C         74.48134       71.96098       27.52621
O         73.66151       73.01784       27.36838
O         75.68858       72.11187       27.43549
H         74.40830       71.97912       30.16140
H         72.90510       69.48947       29.32631
H         73.27257       70.27325       26.99378
H         74.77972       69.88088       27.88575
N         70.82870       70.84428       28.36715
C         69.45841       71.33071       28.45918
C         69.16662       72.62012       27.74299
O         70.04753       73.22108       27.15108
H         70.98986       69.99399       27.80621
H         69.14958       71.42325       29.51773
H         68.79941       70.57353       27.98198
N         67.87801       73.07299       27.75697
C         67.35558       74.20010       26.97483
C         65.92327       73.87797       26.50835
O         65.39371       72.86014       26.93475
C         67.41181       75.47505       27.84380
C         68.84107       75.78838       28.16502
O         69.24270       75.76538       29.31710
O         69.69849       76.01087       27.15140
H         67.21555       72.54344       28.34486
H         67.97752       74.32813       26.06342
H         66.82423       75.31561       28.77513
H         66.99752       76.35277       27.32309
N         65.19083       74.62781       25.62951
C         65.59623       75.81954       24.90522
C         66.71301       75.53042       23.94271
O         66.60780       74.57718       23.18390
H         64.23621       74.29298       25.42029
H         65.82197       76.66318       25.58121
H         64.73120       76.14548       24.28693
N         67.78820       76.36086       23.86278
C         68.87322       76.13015       22.92013
C         69.72657       74.98239       23.41679
O         70.16263       75.02714       24.55523
C         69.71464       77.41022       22.70239
C         70.70128       77.22753       21.54153
O         70.41982       77.76763       23.86333
H         67.80239       77.20634       24.45261
H         68.43156       75.90484       21.92275
H         69.03290       78.23821       22.39208
H         69.83866       78.37848       24.38540
H         70.15164       76.97926       20.60696
H         71.26512       78.16798       21.37007
H         71.42103       76.40881       21.74701
N         70.01803       73.93392       22.59870
C         70.82654       72.77462       22.96549
C         72.21741       73.20166       23.42583
O         72.35710       73.66035       24.55282
C         70.12150       71.89135       24.04228
C         68.62377       71.62412       23.75376
C         70.88286       70.57851       24.30081
C         68.33500       70.89041       22.44673
H         69.65741       73.95939       21.63334
H         70.92929       72.16155       22.04272
H         70.12749       72.45384       24.98332
H         68.08729       72.59318       23.73176
H         68.19022       71.04147       24.59680
H         70.38389       70.00155       25.10972
H         70.92357       69.95245       23.38623
H         71.92266       70.78303       24.63103
H         67.23624       70.77081       22.33740
H         68.70531       71.47350       21.57928
H         68.79631       69.88292       22.44628
N         73.30378       73.04369       22.62119
C         74.66444       73.32990       23.06370
C         75.37673       74.40201       22.24609
O         76.52950       74.64299       22.56120
C         75.48774       72.01739       23.11852
C         75.57487       71.28708       21.77750
O         74.91797       71.14686       24.06143
H         73.16060       72.67004       21.67089
H         74.66749       73.72745       24.10469
H         76.53511       72.25805       23.42421
H         75.33100       71.36339       24.93700
H         76.01588       71.94338       20.99944
H         76.21514       70.38727       21.89227
H         74.57273       70.94359       21.44754
N         74.78779       75.11363       21.22760
C         75.52253       76.17882       20.52648
C         75.91967       77.25261       21.53009
O         75.06416       77.99857       21.98402
C         74.71441       76.78704       19.35132
C         74.50866       75.76579       18.22652
O         73.47151       77.25203       19.81275
H         73.81521       74.91016       20.96421
H         76.44741       75.73091       20.10026
H         75.30305       77.63890       18.93599
H         73.07556       77.79939       19.08510
H         73.95373       76.23692       17.38728
H         75.49293       75.42558       17.83972
H         73.93391       74.88598       18.58153
N         77.19986       77.27030       22.02065
C         77.66321       78.05026       23.16944
C         76.83736       77.74170       24.41721
O         75.77770       77.14050       24.30706
C         77.68127       79.56377       22.87997
C         78.57132       79.92218       21.67659
C         78.47884       81.42639       21.37079
C         79.25621       81.84730       20.11132
N         80.70633       81.75013       20.28279
H         77.88079       76.60621       21.62233
H         78.70806       77.72581       23.38140
H         78.06373       80.10490       23.77386
H         76.64311       79.90712       22.68739
H         78.22177       79.36216       20.78249
H         79.62036       79.62775       21.89508
H         78.82354       82.02438       22.24278
H         77.40874       81.66589       21.18765
H         79.00134       82.90719       19.88838
H         78.93122       81.23114       19.24357
H         81.01393       82.36682       21.06976
H         80.99898       80.76462       20.46382
H         81.17057       82.07713       19.40429
N         77.27819       78.08698       25.65815
C         76.48243       77.86003       26.86591
C         75.94671       76.43133       26.95240
O         74.73538       76.30105       27.03976
C         77.23256       78.25426       28.15467
C         77.52592       79.75900       28.23018
C         78.20789       80.09856       29.52405
O         77.62122       80.94108       30.39539
O         79.29739       79.61641       29.79121
H         78.21339       78.51503       25.74026
H         75.58491       78.51968       26.81105
H         78.18034       77.69319       28.24506
H         76.58738       77.99540       29.02465
H         76.56755       80.31923       28.16566
H         78.17771       80.07951       27.39186
N         76.70543       75.30157       26.89490
C         78.13994       75.25142       26.74325
H         78.64335       75.69185       27.62103
H         78.46219       74.18970       26.68008
H         78.45073       75.75720       25.80788
H         76.21062       74.40147       26.92938
Ca        71.92676       75.84926       27.40692
O         72.15864       78.73922       27.11354
H         71.56938       78.89216       26.33297
H         71.53556       78.62386       27.87464
O         73.00033       76.40159       24.48283
H         73.13118       77.31902       24.82904
H         72.98514       76.50648       23.49946
O         72.51014       75.50495       30.28139
H         71.98183       74.74841       30.63812
H         71.83799       76.20928       30.10134

Ca 1.0



