%chk=apoCaM-CA-Ng.loop1.water3.frame1485.chk
%nprocshared=20
%mem=10GB
%nosave
#b3lyp/svp scf=(tight,noincore,xqc) Test 
#IOP(5/87=12) Density=Current Pop=(MK,readradii) iop(6/33=2) iop(6/42=6)

apoCaM-CA-Ng.loop1.water3.frame1485 

   0  1 
C         17.20518       84.76600       47.42601
C         17.08820       86.24398       47.66953
O         18.01388       86.82710       48.21106
H         17.34798       84.24126       48.39444
H         16.29180       84.35889       46.94246
H         18.07508       84.56074       46.76855
N         15.96693       86.92083       47.29401
C         15.76984       88.35691       47.50719
C         15.57470       88.75021       48.97548
O         15.31770       89.92030       49.22585
C         14.56079       88.84860       46.67222
C         13.22323       88.26341       47.05911
O         12.22520       88.60191       46.44389
O         13.10482       87.37850       48.06892
H         15.23643       86.39228       46.79267
H         16.65593       88.89907       47.10881
H         14.75374       88.60856       45.60409
H         14.49136       89.95519       46.75788
N         15.65740       87.84620       49.99335
C         15.35029       88.16401       51.38383
C         16.10904       89.37593       51.92076
O         15.43709       90.24923       52.45145
C         15.50322       86.94709       52.33472
C         14.68348       85.73014       51.85894
C         14.51520       84.66150       52.94611
C         13.86759       83.36962       52.40560
N         12.58353       83.60448       51.73952
H         15.91654       86.88088       49.77688
H         14.26691       88.42330       51.42440
H         15.11815       87.26913       53.32856
H         16.56545       86.64645       52.45952
H         15.18278       85.26856       50.98263
H         13.66921       86.07336       51.56455
H         13.89069       85.08275       53.76500
H         15.50570       84.38749       53.36962
H         13.71742       82.67141       53.25872
H         14.56263       82.88302       51.68600
H         12.16423       82.68314       51.47770
H         11.92629       84.11261       52.37364
H         12.72382       84.14609       50.85619
N         17.46046       89.56941       51.84905
C         18.43840       88.72447       51.17095
C         19.11017       89.50915       50.03928
O         18.80400       90.67759       49.84462
C         19.43586       88.15518       52.19594
C         20.06788       89.20581       53.05657
O         20.78355       90.06925       52.57518
O         19.82077       89.19529       54.37914
H         17.82505       90.43387       52.28212
H         17.95549       87.85063       50.70365
H         20.21970       87.55297       51.69410
H         18.87311       87.47077       52.86722
N         19.97722       88.88735       49.19214
C         20.52782       89.50790       47.99166
C         21.62800       90.52135       48.23724
O         21.98069       90.77982       49.37676
H         20.16925       87.88585       49.33811
H         19.70697       89.95953       47.39331
H         20.99021       88.70575       47.37769
N         22.26608       91.06635       47.15201
C         23.44826       91.94221       47.21288
C         24.22327       91.93435       45.88278
O         23.66799       91.52455       44.87432
C         23.05596       93.40080       47.57262
C         22.63040       93.50034       48.99412
O         23.48355       93.09127       49.95157
O         21.51567       93.89798       49.28402
H         21.94210       90.73731       46.23150
H         24.13382       91.50421       47.96115
H         22.26474       93.76360       46.88030
H         23.90250       94.09679       47.46824
N         25.52639       92.35304       45.76915
C         26.37545       92.80006       46.86444
C         26.67911       91.70500       47.85920
O         26.48172       90.53315       47.56554
H         25.95492       92.34296       44.83015
H         25.92529       93.66532       47.37509
H         27.34955       93.16326       46.47109
N         27.14101       92.04253       49.09353
C         27.43368       91.07107       50.14350
C         26.20354       90.23481       50.45266
O         25.13394       90.79325       50.63767
C         27.91410       91.77200       51.44142
C         29.23215       92.52985       51.23144
O         28.11457       90.79970       52.43785
H         27.25369       93.04689       49.29937
H         28.25588       90.40117       49.80801
H         27.12158       92.48598       51.76825
H         28.13578       91.27505       53.30950
H         30.03003       91.82618       50.91190
H         29.13314       93.32963       50.47124
H         29.54343       93.00694       52.18495
N         26.32475       88.88026       50.58227
C         25.25724       87.95421       50.95207
C         24.62735       88.34644       52.27725
O         23.86317       89.30069       52.32740
C         24.20635       87.76626       49.81564
C         24.90404       87.16589       48.56691
C         23.05411       86.84874       50.28584
C         23.99999       87.05352       47.33809
H         27.26262       88.46814       50.46445
H         25.73597       86.95874       51.09751
H         23.77534       88.75640       49.55603
H         25.30177       86.15572       48.81346
H         25.76073       87.81048       48.27851
H         22.53218       87.28661       51.16016
H         22.28166       86.72830       49.50319
H         23.43860       85.84664       50.57202
H         24.58655       86.63461       46.49325
H         23.14474       86.37098       47.51300
H         23.62298       88.05659       47.04831
N         24.86660       87.59848       53.38823
C         24.20032       87.82261       54.66111
C         25.16097       88.17224       55.78765
O         24.66756       88.36451       56.88764
C         23.31774       86.59413       55.00974
C         24.10276       85.28313       55.13276
O         22.33398       86.42714       54.02190
H         25.52696       86.81013       53.31686
H         23.50856       88.69268       54.59389
H         22.82109       86.76726       55.99371
H         21.62935       87.10173       54.20361
H         23.40989       84.46411       55.41972
H         24.56484       84.99805       54.16493
H         24.89341       85.36644       55.90657
N         26.51759       88.30715       55.61580
C         27.38551       88.70859       56.72720
C         26.97542       90.10783       57.16692
O         27.22761       91.05872       56.44076
C         28.88132       88.64597       56.32847
C         29.80198       88.98139       57.50879
O         29.17853       87.35029       55.87422
H         26.93669       88.13254       54.69232
H         27.22465       87.97798       57.55184
H         29.05388       89.37944       55.50491
H         29.98541       87.42297       55.29944
H         29.60831       90.00674       57.88702
H         29.64915       88.25480       58.33537
H         30.86295       88.92785       57.18343
N         26.20647       90.26498       58.28636
C         25.51597       91.49307       58.68440
C         24.57768       92.00651       57.60165
O         24.70361       91.62290       56.44936
C         26.46872       92.62499       59.10144
C         27.33129       92.26054       60.31175
C         28.16757       93.47404       60.73548
C         29.01920       93.16805       61.97065
N         29.79182       94.34465       62.36849
H         26.00371       89.42750       58.85323
H         24.87975       91.23202       59.56089
H         25.85168       93.50849       59.38038
H         27.11699       92.91682       58.24726
H         27.99681       91.40668       60.05870
H         26.66912       91.96488       61.15552
H         27.48555       94.32063       60.97429
H         28.83029       93.77763       59.89554
H         29.71307       92.32842       61.74505
H         28.35691       92.86405       62.81193
H         30.36307       94.11127       63.21212
H         30.43214       94.63343       61.59341
H         29.14776       95.13478       62.60444
N         23.58144       92.88081       57.92073
C         22.70026       93.49740       56.93214
C         22.17314       92.49691       55.91394
O         22.36679       92.75599       54.73752
C         21.55160       94.27943       57.60677
C         20.75427       95.11612       56.58841
C         19.61947       95.87520       57.22091
O         19.35633       95.77038       58.53883
O         18.91853       96.59366       56.52681
H         23.44603       93.12022       58.91557
H         23.31388       94.24255       56.37486
H         21.98327       94.97475       58.35948
H         20.86686       93.58026       58.12969
H         20.32750       94.45734       55.80225
H         21.44198       95.84484       56.10556
N         21.54325       91.32787       56.21759
C         21.26890       90.80877       57.53983
H         20.17726       90.64262       57.64544
H         21.79053       89.83496       57.65730
H         21.60122       91.47241       58.35403
H         21.26458       90.73264       55.42961
Ca        22.78711       92.56797       52.01700
O         19.76959       93.08842       51.57852
H         20.18479       92.50574       50.89501
H         19.59253       93.93962       51.10484
O         22.23606       95.34757       52.61787
H         22.77589       95.30494       51.78850
H         22.86542       95.68005       53.30574
O         25.41961       91.29337       53.68130
H         24.45134       91.39956       53.85086
H         25.80683       92.17759       53.89855

Ca 1.0



