%chk=apoCaM-CA-Ng.loop1.water3.frame1093.chk
%nprocshared=20
%mem=10GB
%nosave
#b3lyp/svp scf=(tight,noincore,xqc) Test 
#IOP(5/87=12) Density=Current Pop=(MK,readradii) iop(6/33=2) iop(6/42=6)

apoCaM-CA-Ng.loop1.water3.frame1093 

   0  1 
C         65.13960       69.29961       45.78523
C         64.29687       69.91098       46.86136
O         63.10155       69.66292       46.86302
H         66.20965       69.56359       45.90667
H         65.03565       68.19474       45.82849
H         64.78981       69.65634       44.79329
N         64.84213       70.73860       47.80170
C         64.06095       71.33137       48.88658
C         63.51983       72.70408       48.51541
O         63.67161       73.65102       49.27642
C         64.85559       71.31324       50.21759
C         66.12896       72.13246       50.22575
O         66.48744       72.77306       49.24935
O         66.88232       72.16223       51.34085
H         65.84895       70.94392       47.74012
H         63.16093       70.70614       49.05614
H         65.11960       70.26141       50.45633
H         64.20051       71.69399       51.03170
N         62.83257       72.87092       47.35212
C         62.17531       74.11645       46.98807
C         60.97034       74.33249       47.89613
O         60.94396       75.36582       48.54888
C         61.85707       74.18118       45.47353
C         63.16612       74.05211       44.66687
C         62.95438       74.16282       43.15678
C         64.29787       73.99084       42.42876
N         64.13412       74.09400       40.98076
H         62.76263       72.07942       46.70229
H         62.88971       74.95753       47.14812
H         61.39273       75.16709       45.25023
H         61.14867       73.39589       45.14966
H         63.63623       73.06758       44.87516
H         63.87192       74.85093       44.98632
H         62.52165       75.15795       42.91524
H         62.25037       73.37034       42.82173
H         64.72897       72.99423       42.67629
H         65.01225       74.77260       42.77225
H         63.48402       73.34957       40.63918
H         63.76000       75.03744       40.72920
H         65.06607       73.96575       40.52372
N         59.97053       73.41576       48.09849
C         59.83140       72.10820       47.45475
C         60.21705       70.97892       48.38529
O         60.54058       71.22746       49.53799
C         58.42412       71.95298       46.84699
C         57.27589       72.38729       47.72862
O         56.93761       71.81145       48.90605
O         56.59866       73.32707       47.34364
H         59.27256       73.65096       48.82230
H         60.54350       71.99237       46.62711
H         58.26624       70.92450       46.48356
H         58.39957       72.61301       45.95050
N         60.29782       69.70072       47.90479
C         60.88626       68.60826       48.66349
C         59.85321       67.75531       49.32877
O         58.66926       67.97873       49.14164
H         60.04777       69.51317       46.92139
H         61.55458       69.01123       49.45297
H         61.51283       67.97773       47.99668
N         60.24777       66.79736       50.20984
C         59.31337       66.02662       51.02914
C         59.68257       64.54782       50.99195
O         60.73129       64.23169       50.44373
C         59.37012       66.64142       52.45103
C         58.99426       68.09661       52.33370
O         59.81084       68.97231       52.57053
O         57.79368       68.40750       51.80559
H         61.25921       66.70446       50.40176
H         58.28048       66.12988       50.63169
H         60.40288       66.54392       52.85656
H         58.67927       66.16072       53.16063
N         58.92233       63.54634       51.52714
C         57.60400       63.66274       52.13402
C         56.53433       63.95606       51.11308
O         56.43581       63.20596       50.15193
H         59.31042       62.59065       51.48133
H         57.59743       64.36386       52.98329
H         57.33903       62.66827       52.55438
N         55.66053       64.99421       51.27826
C         54.56016       65.25489       50.35130
C         54.76846       66.57649       49.64039
O         55.45590       67.45028       50.14677
C         53.19199       65.15147       51.06973
C         52.00286       65.31520       50.10912
O         53.11007       66.10802       52.09183
H         55.76887       65.61245       52.09665
H         54.55637       64.47227       49.56086
H         53.14027       64.12929       51.51281
H         52.36189       65.83268       52.68414
H         52.05461       64.55893       49.29683
H         51.04888       65.16815       50.65810
H         51.98475       66.33221       49.66373
N         54.30351       66.70211       48.36682
C         54.56955       67.80360       47.45634
C         53.90434       69.10183       47.90941
O         54.27302       69.64834       48.93821
C         56.09859       68.00423       47.20203
C         56.91845       66.68472       47.10139
C         56.32436       68.87084       45.95221
C         56.48700       65.71091       46.01103
H         53.77181       65.91285       47.96865
H         54.12414       67.49739       46.48271
H         56.52629       68.55146       48.06741
H         56.87400       66.14783       48.07219
H         57.98782       66.93811       46.93075
H         57.41047       69.00572       45.77503
H         55.89199       68.38878       45.05109
H         55.85483       69.86946       46.07362
H         57.14580       64.81666       46.05595
H         55.44221       65.37900       46.17182
H         56.59024       66.16720       45.00722
N         52.96008       69.68956       47.12394
C         52.42788       71.03293       47.36425
C         51.51033       71.18978       48.58337
O         51.15675       72.32550       48.87154
C         51.68464       71.53976       46.09135
C         50.41531       70.73111       45.77084
O         52.54143       71.48129       44.97924
H         52.71889       69.21041       46.24438
H         53.30251       71.70477       47.51707
H         51.35957       72.59538       46.24194
H         53.20835       72.20818       45.08907
H         49.68663       70.78902       46.60592
H         49.92965       71.14326       44.86097
H         50.64286       69.66287       45.57600
N         51.00714       70.13390       49.28814
C         49.97055       70.31641       50.31357
C         50.50149       71.01495       51.56183
O         51.30787       70.42752       52.26757
C         49.32968       68.95327       50.68811
C         48.23479       69.09258       51.75388
O         48.74887       68.37947       49.54321
H         51.27603       69.17998       49.00726
H         49.15848       70.93372       49.86579
H         50.10952       68.27392       51.11005
H         49.41080       67.75147       49.15331
H         47.79459       68.09661       51.97167
H         48.65065       69.48996       52.70347
H         47.42924       69.77078       51.40023
N         50.05291       72.26142       51.91245
C         50.41988       72.95526       53.14910
C         51.92869       73.01766       53.30761
O         52.47179       72.41390       54.22425
C         49.74032       72.32241       54.38503
C         48.20471       72.38099       54.31812
C         47.59763       71.94498       55.65977
C         46.06400       71.96453       55.62891
N         45.51516       71.60586       56.93762
H         49.41219       72.75329       51.27127
H         50.03958       74.00134       53.10641
H         50.06181       72.91571       55.27108
H         50.06882       71.27067       54.52937
H         47.84176       71.72708       53.49651
H         47.87813       73.42454       54.11166
H         47.94823       72.64355       56.45223
H         47.94238       70.91877       55.91154
H         45.70192       71.24140       54.86483
H         45.70427       72.98039       55.35127
H         45.81141       72.30804       57.65462
H         44.47103       71.60049       56.88456
H         45.84526       70.65482       57.22141
N         52.66924       73.74110       52.42799
C         54.12588       73.76730       52.43996
C         54.63324       73.25371       51.09962
O         55.15367       72.14822       51.09901
C         54.65699       75.15361       52.85056
C         54.45039       75.40934       54.35212
C         54.90070       76.79046       54.73069
O         55.91071       76.95866       55.60542
O         54.34307       77.76819       54.25779
H         52.16671       74.27631       51.70827
H         54.51621       73.05178       53.19913
H         54.13349       75.94406       52.27962
H         55.74983       75.20815       52.64924
H         55.04144       74.66072       54.92634
H         53.38064       75.29874       54.62823
N         54.52039       73.90598       49.90449
C         54.03838       75.25428       49.70353
H         52.99719       75.37545       50.04951
H         54.71656       75.97628       50.20000
H         54.06443       75.49764       48.62046
H         54.83762       73.40885       49.06227
Ca        57.37113       70.16774       50.42414
O         56.24138       70.78172       53.61236
H         56.96416       70.47293       54.21343
H         55.45497       70.88920       54.20410
O         58.84956       72.13490       52.40816
H         59.26144       71.69518       51.62501
H         58.94846       71.47186       53.13566
O         54.20718       69.42180       52.08093
H         53.92624       68.48227       52.20004
H         53.60381       69.77149       51.38032

Ca 1.0



