%chk=apoCaM-CA-Ng.loop1.water4.frame728.chk
%nprocshared=20
%mem=10GB
%nosave
#b3lyp/svp scf=(tight,noincore,xqc) Test 
#IOP(5/87=12) Density=Current Pop=(MK,readradii) iop(6/33=2) iop(6/42=6)

apoCaM-CA-Ng.loop1.water4.frame728 

   0  1 
C         71.96953      110.39094       21.38953
C         72.84761      111.44170       20.77806
O         72.48808      112.60901       20.83126
H         70.97775      110.40444       20.89035
H         72.40760      109.37711       21.27496
H         71.83717      110.60146       22.47087
N         74.01243      111.09619       20.16129
C         74.89665      112.05835       19.52092
C         74.75100      111.98400       17.97210
O         74.40387      110.73771       17.42150
C         76.29833      112.10562       20.22927
C         77.21381      110.91906       20.53607
O         77.06961      109.67140       20.05157
O         78.15077      111.12104       21.29266
H         74.27345      110.10050       20.12334
H         74.52321      113.09188       19.69203
H         76.04844      112.48583       21.24543
H         76.91865      112.89117       19.74885
N         75.79334      112.67690       17.20883
C         75.40737      112.89623       15.80012
C         76.61112      112.58577       14.94892
O         77.66403      113.17215       15.16179
C         74.90062      114.33515       15.52804
C         74.33160      114.44612       14.09701
C         73.89642      115.87126       13.73784
C         73.26632      115.90002       12.33438
N         72.91770      117.26286       11.93540
H         76.05048      113.58526       17.66120
H         74.57872      112.21032       15.51188
H         75.73049      115.06088       15.67694
H         74.08544      114.58322       16.24250
H         73.45691      113.76284       14.01417
H         75.09705      114.12863       13.35619
H         74.78916      116.53381       13.75915
H         73.15432      116.24315       14.47733
H         72.34838      115.26963       12.33168
H         73.97914      115.47876       11.59050
H         73.78236      117.84850       11.87717
H         72.46579      117.23723       10.99237
H         72.24927      117.68328       12.62073
N         76.51653      111.67440       13.94477
C         77.64987      111.29417       13.11316
C         77.15449      110.53961       11.88616
O         76.35888      109.62290       12.04235
C         78.68537      110.47274       13.90734
C         78.12369      109.19324       14.46117
O         77.10706      109.22511       15.34360
O         78.59572      108.11996       14.12266
H         75.59069      111.26177       13.75028
H         78.13870      112.23076       12.79067
H         79.07786      111.07553       14.75198
H         79.54210      110.24699       13.23438
N         77.50874      110.88376       10.61601
C         78.57957      111.79263       10.25623
C         78.04034      113.12169        9.82076
O         77.38016      113.77631       10.61553
H         77.02980      110.41608        9.84246
H         79.19494      111.31310        9.46448
H         79.28778      111.95491       11.08930
N         78.33350      113.61192        8.58500
C         77.95512      114.94660        8.14698
C         77.09183      114.84447        6.90727
O         77.53260      114.28866        5.91002
C         79.24009      115.75738        7.89389
C         79.00046      117.20828        7.56649
O         79.95613      117.94114        7.37034
O         77.75519      117.72000        7.50835
H         78.89591      113.03434        7.94109
H         77.38873      115.47011        8.94877
H         79.82304      115.28553        7.07291
H         79.85769      115.72498        8.81880
N         75.83131      115.36001        6.90940
C         74.92563      115.26009        5.78004
C         74.59373      113.81918        5.50103
O         74.78381      113.35942        4.38425
H         75.48494      115.83800        7.75529
H         75.36536      115.75479        4.88649
H         73.97818      115.78282        6.03452
N         74.10761      113.04255        6.50659
C         73.75718      111.63616        6.35912
C         74.73021      110.79977        7.17907
O         75.59445      111.35976        7.84116
C         72.28516      111.44530        6.82328
C         71.31856      112.31845        6.01721
O         71.88579      110.10712        6.68325
H         73.99882      113.46490        7.44267
H         73.85502      111.31259        5.29928
H         72.22879      111.74972        7.89685
H         71.22684      109.91991        7.40236
H         70.28251      112.16718        6.38812
H         71.56704      113.39470        6.12672
H         71.35716      112.04308        4.94186
N         74.64982      109.44019        7.18405
C         75.53065      108.60881        7.99175
C         76.93096      108.64358        7.40925
O         77.85951      108.97475        8.12928
C         74.95920      107.17276        8.16273
C         73.49784      107.18811        8.71337
C         75.86439      106.34179        9.09306
C         73.28428      108.00538        9.99743
H         73.93007      108.98064        6.61276
H         75.56182      109.01774        9.02006
H         74.93395      106.65792        7.17708
H         73.16926      106.14203        8.89342
H         72.81140      107.60517        7.94843
H         76.88394      106.24587        8.66518
H         75.95289      106.81085       10.09555
H         75.45337      105.31723        9.21504
H         72.22225      107.92972       10.31076
H         73.92117      107.63919       10.82700
H         73.48959      109.08313        9.82354
N         77.15371      108.32085        6.10520
C         78.47201      108.42108        5.46949
C         78.50770      107.70580        4.12336
O         77.48952      107.21794        3.65003
C         78.92769      109.90929        5.30810
C         77.89875      110.75676        4.55012
O         79.16745      110.49403        6.56072
H         76.34391      107.99729        5.55517
H         79.20687      107.86987        6.09782
H         79.88254      109.92007        4.73440
H         79.84983      111.20440        6.43273
H         78.27913      111.79456        4.43910
H         77.71251      110.34072        3.53861
H         76.94010      110.79857        5.10947
N         79.69966      107.56567        3.47705
C         79.86895      106.81390        2.24491
C         80.78241      105.63392        2.53352
O         80.34738      104.50187        2.37615
C         80.38008      107.74637        1.11146
C         80.56469      106.99879       -0.21399
O         81.58893      108.36471        1.47217
H         80.54585      107.97094        3.90477
H         78.89181      106.40579        1.90010
H         79.59712      108.52838        0.96470
H         81.62846      109.23692        0.99946
H         79.60700      106.53622       -0.53287
H         80.89148      107.70867       -1.00385
H         81.33710      106.20651       -0.11700
N         82.06848      105.82804        2.94486
C         83.02050      104.74790        3.15768
C         83.83098      105.01706        4.41321
O         84.31174      106.13170        4.57331
C         83.90788      104.66331        1.91076
C         84.79609      103.41389        1.91886
C         85.48150      103.24703        0.56035
C         86.28954      101.94749        0.50188
N         86.87503      101.76470       -0.82529
H         82.42628      106.78977        3.01662
H         82.49518      103.76978        3.23767
H         84.51427      105.58724        1.78406
H         83.22246      104.57719        1.03735
H         84.15422      102.52139        2.09281
H         85.54779      103.47678        2.73567
H         86.14459      104.11735        0.36322
H         84.69997      103.20703       -0.23106
H         85.62029      101.08536        0.72248
H         87.09554      101.97321        1.26794
H         86.11765      101.71234       -1.54567
H         87.51760      102.55900       -1.04802
H         87.41606      100.87062       -0.84128
N         84.05997      104.03968        5.33713
C         84.78933      104.31619        6.57169
C         83.97372      105.23595        7.47272
O         84.48095      106.30235        7.78970
C         85.23818      103.04552        7.33201
C         86.24377      102.21643        6.51698
C         86.79803      101.08717        7.33860
O         86.64814       99.93089        6.97871
O         87.48527      101.34869        8.46807
H         83.73092      103.08246        5.14125
H         85.74073      104.83640        6.31033
H         84.38867      102.40405        7.63680
H         85.75291      103.38426        8.25963
H         87.09723      102.85732        6.20571
H         85.75118      101.81887        5.60371
N         82.71953      104.95298        7.94105
C         81.93196      103.77145        7.64541
H         80.98227      104.08039        7.16081
H         82.42516      103.05966        6.96859
H         81.69463      103.24065        8.59057
H         82.26809      105.64951        8.55398
Ca        75.87051      109.32660       18.26247
O         77.32663      105.78185       16.15797
H         77.40356      106.75829       16.29781
H         78.23069      105.43250       16.36015
O         79.18565      107.87273       18.25574
H         79.68384      107.57236       17.45450
H         79.79781      107.69066       19.01229
O         78.68205      110.90735       17.58021
H         78.41566      111.85057       17.71686
H         79.38113      110.74755       18.26271
O         76.98598      105.80366       19.30367
H         77.07489      105.74532       20.28797
H         77.39156      104.96486       18.96817

Ca 1.0



