%chk=apoCaM-CA-Ng.loop1.water3.frame1334.chk
%nprocshared=20
%mem=10GB
%nosave
#b3lyp/svp scf=(tight,noincore,xqc) Test 
#IOP(5/87=12) Density=Current Pop=(MK,readradii) iop(6/33=2) iop(6/42=6)

apoCaM-CA-Ng.loop1.water3.frame1334 

   0  1 
C         74.10919       49.87042       18.96982
C         73.96686       50.71314       20.20138
O         72.84784       51.07791       20.53516
H         75.16876       49.59176       18.79178
H         73.50540       48.94630       19.07231
H         73.74962       50.44913       18.09181
N         75.07255       51.11752       20.89058
C         75.01081       52.03666       22.02358
C         75.46169       53.41083       21.56802
O         76.27056       54.05468       22.22832
C         75.80199       51.47994       23.23562
C         77.28642       51.27647       23.00437
O         78.04370       50.77702       23.99856
O         77.81788       51.56323       21.94266
H         75.99493       50.83620       20.53196
H         73.95274       52.16515       22.34330
H         75.36135       50.50209       23.52486
H         75.68472       52.17459       24.09596
N         74.96729       53.91759       20.40580
C         75.30334       55.23170       19.88956
C         74.71475       56.31082       20.78584
O         75.49296       57.13309       21.23879
C         74.90960       55.37860       18.40198
C         75.76050       54.42991       17.53044
C         75.38321       54.52155       16.05004
C         76.21791       53.54123       15.21144
N         75.76088       53.52206       13.82278
H         74.33330       53.32763       19.84516
H         76.41275       55.35159       19.89811
H         75.11468       56.41950       18.07039
H         73.83209       55.17228       18.24474
H         75.61138       53.38036       17.86445
H         76.83830       54.68415       17.64978
H         75.54078       55.55780       15.67662
H         74.30852       54.26079       15.94753
H         76.11860       52.51570       15.63169
H         77.29288       53.83039       15.24975
H         75.86669       54.46831       13.39112
H         76.33152       52.83169       13.28324
H         74.75783       53.22643       13.78554
N         73.39935       56.38937       21.16679
C         72.29644       55.51054       20.78465
C         71.81592       54.65569       21.95009
O         72.37569       54.72610       23.03818
C         71.15954       56.34682       20.15818
C         70.79995       57.58505       20.94584
O         70.23327       57.58480       22.17043
O         71.05702       58.66481       20.44324
H         73.17060       57.14744       21.83026
H         72.60704       54.77889       20.01789
H         70.26413       55.73279       19.93237
H         71.54124       56.70135       19.17484
N         70.83460       53.73818       21.73919
C         70.39856       52.71281       22.67660
C         69.57155       53.16495       23.90483
O         68.56981       54.03802       23.53322
H         70.43536       53.67216       20.78855
H         71.27832       52.12881       23.02276
H         69.74729       52.02127       22.10123
N         68.90694       51.97284       24.42975
C         67.98531       52.15848       25.57063
C         66.97645       51.01579       25.54197
O         67.33930       49.94307       25.08034
C         68.77110       52.08563       26.89529
C         69.64804       53.27870       27.10580
O         69.08759       54.48883       27.26980
O         70.86058       53.15564       27.17288
H         69.58208       51.19112       24.58767
H         67.43253       53.12280       25.49544
H         69.38421       51.15746       26.89276
H         68.07692       52.03581       27.75833
N         65.71705       51.09611       26.06970
C         65.12007       52.28663       26.65043
C         64.71087       53.28575       25.59699
O         64.52828       52.90931       24.44794
H         65.14701       50.23652       26.07851
H         65.79362       52.72768       27.41324
H         64.17997       52.00243       27.17362
N         64.48446       54.58355       25.94125
C         64.04267       55.58861       24.97931
C         65.08421       55.78454       23.89663
O         66.26238       55.88328       24.20229
C         63.72996       56.94722       25.64819
C         62.57450       56.82219       26.64807
O         63.35025       57.86318       24.64886
H         64.63607       54.85986       26.92323
H         63.08947       55.25011       24.51425
H         64.64501       57.31032       26.17289
H         63.60000       58.76978       24.96582
H         62.83166       56.13765       27.48092
H         62.33913       57.81836       27.07729
H         61.66572       56.43692       26.13611
N         64.67676       55.90277       22.60114
C         65.53204       56.12956       21.44367
C         66.32241       57.42077       21.58379
O         67.28068       57.47022       22.34221
C         66.45893       54.91740       21.14333
C         65.63920       53.60463       21.06316
C         67.28449       55.14967       19.86248
C         66.48373       52.34522       20.85358
H         63.66490       55.85275       22.40927
H         64.85119       56.23172       20.56881
H         67.16290       54.83485       21.97296
H         64.88923       53.67815       20.24778
H         65.09667       53.46381       22.01954
H         66.62172       55.21310       18.97494
H         67.87462       56.08537       19.93623
H         68.02193       54.33514       19.71240
H         67.22964       52.23311       21.66839
H         65.81854       51.45606       20.85991
H         67.00165       52.36310       19.87389
N         66.00195       58.49378       20.81662
C         66.82215       59.69170       20.72403
C         66.10506       60.94740       21.18650
O         66.70517       62.00506       21.08662
C         67.32659       59.83246       19.26267
C         66.20420       60.01421       18.23497
O         68.04845       58.68640       18.90222
H         65.15997       58.43256       20.22670
H         67.72482       59.60649       21.37202
H         67.98695       60.72820       19.18572
H         68.92413       58.75639       19.35127
H         65.54608       59.12225       18.19272
H         65.59363       60.91070       18.46573
H         66.65079       60.13631       17.22623
N         64.83415       60.92523       21.69664
C         64.15431       62.14546       22.12933
C         64.88674       62.64513       23.37146
O         64.71570       62.04334       24.42085
C         62.64599       61.84154       22.36705
C         61.80853       63.10921       22.53820
O         62.14511       61.14268       21.25337
H         64.33642       60.02857       21.76999
H         64.22116       62.87519       21.29179
H         62.55648       61.19556       23.27347
H         61.34359       60.64067       21.55775
H         60.74423       62.82603       22.69717
H         62.15297       63.71091       23.40147
H         61.86232       63.72025       21.61055
N         65.87933       63.58818       23.26193
C         66.91061       63.85035       24.27889
C         67.77974       62.61791       24.51287
O         67.31686       61.50014       24.35088
C         66.34098       64.30746       25.63830
C         65.64857       65.67337       25.60242
C         64.67429       65.78682       26.78774
C         64.07094       67.18579       26.98607
N         63.53589       67.75904       25.75097
H         65.99587       64.07108       22.35826
H         67.58303       64.64575       23.88220
H         67.15123       64.37374       26.40158
H         65.64368       63.52866       25.99750
H         65.05143       65.77711       24.67272
H         66.42723       66.46940       25.62071
H         65.17234       65.50186       27.74079
H         63.85290       65.05842       26.60093
H         64.84623       67.86940       27.39404
H         63.25820       67.09929       27.74305
H         63.04044       68.65055       25.98020
H         64.32177       67.98901       25.10004
H         62.86815       67.09937       25.29153
N         69.06931       62.76868       24.92460
C         69.94559       61.66313       25.31673
C         70.00568       60.54608       24.28758
O         69.72522       59.42032       24.67504
C         71.37021       62.16007       25.65084
C         71.39447       63.05968       26.89572
C         72.77671       63.58664       27.14390
O         73.31631       64.30516       26.31695
O         73.42106       63.28657       28.28695
H         69.43532       63.73000       24.98276
H         69.53354       61.20568       26.24626
H         71.79713       62.70193       24.78316
H         72.02540       61.28394       25.85832
H         71.05457       62.46593       27.77259
H         70.71636       63.92873       26.78128
N         70.35651       60.69851       22.98233
C         70.69361       61.91857       22.29429
H         71.72537       61.82640       21.89359
H         69.99444       62.04214       21.44045
H         70.62383       62.81319       22.92965
H         70.36972       59.86110       22.40393
Ca        69.53342       56.01340       23.54259
O         66.91839       58.54829       24.99498
H         67.31304       59.31323       25.47978
H         66.03742       58.87791       24.68878
O         71.59437       56.41015       25.79455
H         71.21338       55.55032       26.09839
H         71.81988       56.25268       24.84612
O         69.10191       57.88989       27.32747
H         69.95251       58.08714       27.79294
H         69.11589       56.91054       27.20213

Ca 1.0



