%chk=apoCaM-CA-Ng.loop3.water3.frame584.chk
%nprocshared=20
%mem=10GB
%nosave
#b3lyp/svp scf=(tight,noincore,xqc) Test 
#IOP(5/87=12) Density=Current Pop=(MK,readradii) iop(6/33=2) iop(6/42=6)

apoCaM-CA-Ng.loop3.water3.frame584 

   0  1 
C         55.04367        7.52423       58.24264
C         54.83515        7.42935       56.75984
O         54.06440        6.58901       56.31866
H         55.75555        8.33786       58.49992
H         54.07349        7.74942       58.73424
H         55.44241        6.56600       58.63092
N         55.46229        8.30179       55.92724
C         55.21774        8.34267       54.49318
C         55.77791        7.10250       53.80921
O         56.98083        6.88379       53.85007
C         55.81022        9.64906       53.93834
C         55.36064       10.03540       52.56681
O         55.73354       11.10933       52.12233
O         54.52425        9.28428       51.82494
H         56.07502        9.01865       56.34778
H         54.12231        8.40451       54.34457
H         56.92052        9.61641       53.98050
H         55.46138       10.47999       54.59131
N         54.94120        6.23555       53.17281
C         55.37948        5.01790       52.49169
C         56.31300        5.33825       51.34018
O         57.36199        4.71821       51.23742
C         54.14533        4.24206       51.97206
C         54.51671        2.91586       51.27457
C         53.29149        2.05900       50.91071
C         52.35114        2.72533       49.89313
N         51.22222        1.84894       49.57991
H         53.93215        6.44977       53.18162
H         55.89930        4.35108       53.21709
H         53.57395        4.88901       51.27372
H         53.49952        4.00678       52.84675
H         55.14435        2.31420       51.96795
H         55.11087        3.11586       50.35623
H         52.72728        1.81941       51.83810
H         53.65897        1.10360       50.47496
H         52.91384        2.94941       48.95971
H         51.95308        3.67733       50.30288
H         50.59971        2.32503       48.88775
H         51.56376        0.95077       49.16700
H         50.67138        1.65087       50.44709
N         55.98491        6.30360       50.43816
C         56.78017        6.60602       49.25202
C         57.56229        7.90324       49.38191
O         58.29219        8.22765       48.45538
C         55.88304        6.60757       47.98801
C         54.78511        7.64773       47.98868
O         53.76925        7.58071       48.87022
O         54.77921        8.52807       47.14403
H         55.14361        6.86169       50.62767
H         57.54952        5.81687       49.10412
H         55.41324        5.60911       47.86355
H         56.53524        6.78284       47.10383
N         57.50511        8.68296       50.49797
C         58.27614        9.90782       50.65151
C         57.88593       11.03147       49.69949
O         58.52186       12.07253       49.77827
H         56.93905        8.37794       51.29869
H         59.35399        9.66998       50.51640
H         58.15295       10.28486       51.68883
N         56.89036       10.90843       48.76842
C         56.56132       11.94563       47.79143
C         55.04785       12.30027       47.86384
O         54.66564       12.49838       49.18651
C         56.95185       11.40762       46.39423
C         58.44310       11.18963       46.29279
N         58.95783        9.95909       46.06362
O         59.19639       12.14454       46.41240
H         56.36275       10.03055       48.70035
H         57.13653       12.87624       47.99247
H         56.68230       12.11282       45.58676
H         56.40604       10.45655       46.20812
H         58.34557        9.13763       45.95785
H         59.97820        9.82638       45.99524
N         54.71741       13.51703       47.09515
C         53.26192       13.71078       46.97113
C         52.63720       14.27989       48.22975
O         52.99920       15.37736       48.63048
H         55.07557       13.40971       46.12233
H         52.78035       12.75345       46.67140
H         53.06531       14.44428       46.15835
N         51.69247       13.56910       48.90964
C         51.03885       14.02071       50.13546
C         51.60768       13.28769       51.34180
O         52.54824       12.52129       51.20116
C         49.49529       13.84959       50.01791
C         48.80127       15.00130       49.32644
C         48.88562       16.29223       49.88336
C         48.01014       14.80428       48.18274
C         48.19688       17.36261       49.31011
C         47.31584       15.88035       47.61155
C         47.40604       17.16238       48.17680
O         46.73170       18.20468       47.64963
H         51.45936       12.62326       48.57148
H         51.27875       15.08254       50.35671
H         49.02162       13.83351       51.01762
H         49.25798       12.86650       49.55663
H         49.47066       16.47015       50.77703
H         47.91283       13.81937       47.74475
H         48.26728       18.34650       49.75807
H         46.69828       15.71599       46.73766
H         46.15616       18.11124       46.87754
N         51.12168       13.56932       52.58476
C         51.67730       13.14872       53.86735
C         51.77892       11.63586       54.03523
O         52.55828       11.00787       53.33876
C         53.05267       13.83633       54.14669
C         53.45236       13.57673       55.62709
C         52.97346       15.34881       53.85006
C         54.75679       14.23301       56.07487
H         50.32515       14.22020       52.65694
H         50.97936       13.54057       54.64138
H         53.82969       13.41248       53.47163
H         53.56799       12.48441       55.77891
H         52.64356       13.93869       56.30001
H         52.71184       15.52861       52.78622
H         52.21576       15.84068       54.49495
H         53.95784       15.83616       53.99897
H         54.67893       15.33906       56.04707
H         54.95874       13.94759       57.12945
H         55.60195       13.89548       55.44110
N         51.07209       11.00367       55.01789
C         51.28894        9.60288       55.37920
C         50.08505        8.71985       55.10605
O         50.17218        7.53167       55.40477
C         51.70047        9.53170       56.85834
O         52.88424       10.25713       57.06979
H         50.40102       11.54520       55.58122
H         52.11295        9.17049       54.78306
H         51.88965        8.47930       57.15874
H         50.87244        9.91076       57.50338
H         52.64684       11.07117       57.58606
N         48.95682        9.17972       54.49751
C         47.83848        8.30741       54.14656
C         48.32542        7.21829       53.19100
O         48.90469        7.57255       52.17370
C         46.72306        9.12164       53.48682
H         48.89872       10.17789       54.23849
H         47.41626        7.88056       55.07827
H         47.08695        9.60580       52.55505
H         45.86216        8.46495       53.24329
H         46.37325        9.91143       54.18611
N         48.18645        5.87851       53.42952
C         47.42075        5.30902       54.53510
C         45.93237        5.56140       54.30286
O         45.55060        5.66602       53.14486
C         47.64987        3.79514       54.61759
H         48.63067        5.22880       52.76037
H         47.80068        5.74668       55.47915
H         48.72952        3.58487       54.77490
H         47.08320        3.36222       55.46942
H         47.32305        3.29496       53.68026
N         45.00189        5.68447       55.29649
C         45.25888        5.60510       56.72731
C         45.10288        6.97877       57.34924
O         46.02973        7.43476       58.00394
C         44.42135        4.51080       57.45320
C         42.92409        4.73127       57.78441
C         41.94289        4.60503       56.64878
O         41.90631        5.41908       55.74468
O         41.02724        3.61723       56.67468
H         44.04588        5.89527       54.99178
H         46.30267        5.28161       56.90323
H         44.90075        4.41410       58.45384
H         44.55605        3.53104       56.94406
H         42.77838        5.69177       58.32040
H         42.65487        3.92899       58.50724
N         43.97417        7.71704       57.14532
C         43.76890        9.04180       57.68963
H         42.83813        9.04514       58.29419
H         44.61039        9.37092       58.33312
H         43.65638        9.76530       56.85470
H         43.22107        7.34392       56.55475
Ca        54.04812       10.46070       49.98232
O         51.59100        9.70869       47.84246
H         52.04142        9.24246       47.09433
H         51.17134       10.49974       47.42096
O         51.82971        7.98613       51.43721
H         51.35331        7.30587       50.89803
H         51.87444        7.59673       52.34633
O         49.99052       10.44107       50.81355
H         49.37763       10.19889       50.07450
H         49.42504       10.94643       51.45026

Ca 1.0



