%chk=apoCaM-CA-Ng.loop2.water4.frame490.chk
%nprocshared=20
%mem=10GB
%nosave
#b3lyp/svp scf=(tight,noincore,xqc) Test 
#IOP(5/87=12) Density=Current Pop=(MK,readradii) iop(6/33=2) iop(6/42=6)

apoCaM-CA-Ng.loop2.water4.frame490 

   -2  1 
C         69.92911       50.12195       71.04471
C         70.84554       49.97425       69.86207
O         70.97358       48.87205       69.34883
H         68.90033       49.81798       70.75942
H         70.27694       49.47731       71.87774
H         69.89804       51.17150       71.40620
N         71.51631       51.05318       69.36794
C         72.40992       50.98226       68.21562
C         73.57503       50.05828       68.51466
O         74.29425       50.30425       69.47415
C         72.93053       52.39717       67.86806
C         73.78429       52.46362       66.62480
O         74.01782       51.46931       65.95522
O         74.29014       53.65003       66.23936
H         71.37165       51.96704       69.82528
H         71.82939       50.61076       67.34158
H         73.51867       52.79313       68.72494
H         72.05926       53.06791       67.70671
N         73.83460       48.98181       67.71658
C         74.95464       48.08051       67.96880
C         74.76787       47.32768       69.27906
O         73.73331       47.45973       69.91227
C         75.13698       47.11235       66.79250
H         73.23843       48.82273       66.88936
H         75.88217       48.69227       68.03845
H         75.30555       47.69230       65.85888
H         76.02451       46.46298       66.94380
H         74.23847       46.47413       66.66220
N         75.75979       46.52851       69.75294
C         75.74148       45.87847       71.05865
C         75.73255       44.37041       70.89215
O         76.54356       43.83923       70.14574
C         77.00660       46.31322       71.83007
C         77.22763       45.51731       73.09065
O         78.15191       44.72175       73.12896
O         76.45545       45.63610       74.18326
H         76.60505       46.40374       69.17504
H         74.85480       46.17706       71.66180
H         76.98760       47.40164       72.05270
H         77.88014       46.11910       71.16952
N         74.90716       43.61655       71.67364
C         74.95482       42.16515       71.71502
C         73.57339       41.55671       71.76360
O         73.23560       40.73798       70.92156
H         74.31265       44.10018       72.36334
H         75.45675       41.87006       72.66385
H         75.55682       41.74471       70.88141
N         72.76419       41.85036       72.81662
C         71.51212       41.15971       73.11416
C         70.38944       41.48637       72.13699
O         69.98420       42.63631       72.03681
C         71.07851       41.51675       74.54489
C         72.12797       41.07086       75.54001
N         72.83992       41.97448       76.25414
O         72.35573       39.87822       75.67916
H         73.12686       42.52108       73.51216
H         71.70585       40.06372       73.09797
H         70.11725       41.01918       74.78340
H         70.93324       42.61719       74.60468
H         72.68690       42.98624       76.13354
H         73.57064       41.66100       76.91060
N         69.82452       40.48735       71.39906
C         68.71582       40.66847       70.47270
C         67.38653       40.84012       71.17741
O         67.02756       39.96432       71.95247
H         70.22001       39.53763       71.47300
H         68.60789       39.73131       69.88392
H         68.93714       41.48738       69.75656
N         66.57725       41.91248       70.92249
C         65.23515       42.05136       71.49251
C         65.24174       43.11943       72.56907
O         64.91939       42.79251       73.70347
C         64.14288       42.23344       70.39274
C         64.21445       43.51776       69.55057
O         64.12413       41.11021       69.54623
H         66.92212       42.65174       70.29261
H         64.94652       41.10807       72.00955
H         63.15721       42.26293       70.90799
H         64.94280       41.13730       68.98512
H         65.17253       43.58711       68.99551
H         63.38497       43.51935       68.81029
H         64.07545       44.41465       70.18265
N         65.66049       44.39142       72.31677
C         65.81966       45.40035       73.35991
C         67.28766       45.75546       73.45732
O         67.88952       46.16059       72.47249
C         64.90742       46.64087       73.15525
C         65.06044       47.29181       71.75683
C         63.44847       46.24734       73.45493
C         64.26918       48.59002       71.60357
H         65.95828       44.63679       71.36199
H         65.53008       44.98386       74.34945
H         65.20051       47.38689       73.92911
H         64.73492       46.58516       70.96614
H         66.12256       47.55004       71.57943
H         63.07862       45.49911       72.72375
H         63.37475       45.81351       74.47664
H         62.78222       47.13203       73.45107
H         64.58966       49.32602       72.37110
H         64.46053       49.01749       70.59731
H         63.17846       48.41447       71.68932
N         67.94169       45.55249       74.63231
C         69.37574       45.74091       74.79942
C         69.77948       45.11459       76.12935
O         70.42173       45.75017       76.94769
C         69.71200       47.25334       74.71435
C         71.17661       47.57731       74.75069
O         71.55831       48.86792       74.75235
O         72.02241       46.69738       74.76422
H         67.39621       45.18548       75.42826
H         69.89348       45.17315       73.99436
H         69.20931       47.77112       75.55778
H         69.31699       47.68958       73.77508
N         69.34512       43.85521       76.42144
C         69.53122       43.19479       77.70841
C         68.96904       44.06027       78.83187
O         67.82130       44.47602       78.72278
C         68.83186       41.81499       77.66501
C         69.01454       41.01008       78.92508
C         69.96546       39.97663       78.96850
C         68.22894       41.26993       80.06125
C         70.13718       39.22654       80.13432
C         68.39666       40.51025       81.22168
C         69.35259       39.49184       81.25964
H         68.79709       43.36042       75.69962
H         70.61310       43.00680       77.85624
H         69.28582       41.25279       76.82749
H         67.74710       41.90131       77.43164
H         70.58181       39.75933       78.10476
H         67.47822       42.04963       80.04576
H         70.87828       38.43867       80.16374
H         67.78358       40.71023       82.09064
H         69.48358       38.90633       82.15981
N         69.69011       44.35951       79.95972
C         69.16107       45.12724       81.07618
C         69.33306       46.63641       80.89790
O         68.87201       47.37633       81.75223
C         70.00451       44.62244       82.25127
C         71.36691       44.45926       81.59764
C         70.99685       43.80455       80.27000
H         68.08829       44.89574       81.26274
H         69.98159       45.25902       83.16137
H         69.64897       43.60247       82.52602
H         71.76430       45.47829       81.38970
H         72.12503       43.90061       82.18605
H         71.77064       44.03124       79.50610
H         70.88402       42.70506       80.39315
N         70.02220       47.15995       79.84299
C         70.23658       48.59193       79.65271
C         68.92160       49.28963       79.39445
O         68.57780       50.20525       80.13042
C         71.17575       48.85800       78.45555
C         72.58705       48.30708       78.67954
C         73.40978       48.47691       77.44059
O         73.88554       47.37486       76.83965
O         73.65300       49.58372       76.98777
H         70.44100       46.51517       79.16993
H         70.71958       49.01994       80.56011
H         71.25908       49.95515       78.28718
H         70.74510       48.39848       77.54107
H         72.54315       47.22100       78.90657
H         73.07472       48.81873       79.53674
N         68.13985       48.91933       78.34423
C         66.90747       49.60014       78.02178
H         66.20262       49.53864       78.87685
H         67.11949       50.66556       77.78752
H         66.43892       49.12933       77.13151
H         68.43173       48.13215       77.74618
Ca        75.03447       47.20529       74.91722
O         72.98943       48.46664       72.37756
H         73.24182       49.19079       71.75294
H         72.22267       48.01633       71.94129
O         75.74807       49.89795       72.63173
H         75.26489       50.65803       72.22051
H         76.65479       50.25057       72.81348
O         76.83430       49.40698       75.63349
H         77.34194       48.80026       75.03732
H         77.48399       50.10956       75.88476
O         73.45337       51.19407       74.52435
H         74.08189       51.93216       74.32496
H         72.81510       51.57980       75.17597

Ca 1.0



