%chk=apoCaM-CA-Ng.loop2.water4.frame1391.chk
%nprocshared=20
%mem=10GB
%nosave
#b3lyp/svp scf=(tight,noincore,xqc) Test 
#IOP(5/87=12) Density=Current Pop=(MK,readradii) iop(6/33=2) iop(6/42=6)

apoCaM-CA-Ng.loop2.water4.frame1391 

   -2  1 
C         12.17479       86.44086       40.64525
C         12.84329       85.11505       40.90851
O         13.89578       84.90403       40.32366
H         11.25655       86.64140       41.21791
H         12.88933       87.24956       40.90904
H         11.93249       86.51999       39.56602
N         12.38104       84.16400       41.77378
C         11.14531       84.21382       42.55460
C         10.28966       82.95658       42.38467
O          9.25885       82.87370       43.03924
C         11.47692       84.53774       44.02884
C         12.40474       83.59103       44.73355
O         12.78736       83.87268       45.99253
O         12.83733       82.59281       44.18451
H         12.99044       83.34319       41.91065
H         10.48838       85.03624       42.22964
H         10.53446       84.61116       44.61412
H         11.96040       85.53882       44.04625
N         10.59717       81.97173       41.48444
C          9.71610       80.82860       41.24129
C          9.64374       79.85296       42.40546
O          8.82854       78.94248       42.34177
C         10.18542       80.05754       39.99897
H         11.43368       82.07099       40.89226
H          8.69605       81.22117       41.03401
H          9.49328       79.21862       39.77052
H         10.21205       80.73358       39.11868
H         11.20479       79.64344       40.16297
N         10.50254       79.92624       43.45953
C         10.54029       78.93959       44.52942
C         10.37788       79.56609       45.89690
O         10.27257       80.77861       46.02194
C         11.83695       78.09582       44.40613
C         13.09838       78.80891       43.95651
O         13.62837       78.44015       42.92017
O         13.68247       79.81915       44.63214
H         11.21760       80.66514       43.47928
H          9.69019       78.22494       44.45441
H         11.62251       77.34819       43.61127
H         12.03586       77.51807       45.33173
N         10.35396       78.74422       46.98459
C         10.31360       79.18959       48.35924
C         11.65390       78.86462       48.94745
O         12.63073       79.43021       48.48700
H         10.43599       77.72605       46.84255
H          9.48530       78.66883       48.88643
H         10.14310       80.28428       48.44371
N         11.81950       77.95281       49.94074
C         13.16159       77.65846       50.43160
C         14.01235       76.94863       49.36192
O         15.22846       76.93179       49.48665
C         13.09319       76.81929       51.71972
C         14.38291       76.87919       52.49421
N         14.80210       78.05555       53.02205
O         15.03780       75.86387       52.67119
H         10.99381       77.49467       50.35633
H         13.61235       78.64607       50.67892
H         12.81374       75.77408       51.45900
H         12.30785       77.22498       52.39340
H         14.24377       78.91508       52.90476
H         15.67352       78.10935       53.56827
N         13.42300       76.28310       48.32018
C         14.13946       75.53068       47.29393
C         14.85609       76.41144       46.29146
O         14.86807       77.61975       46.47287
H         12.39465       76.24240       48.27378
H         13.37817       74.96586       46.71730
H         14.83562       74.80150       47.75981
N         15.43306       75.91529       45.15249
C         15.46111       74.50579       44.74693
C         16.88146       74.00650       44.47759
O         17.16461       72.87843       44.85774
C         14.56276       74.26530       43.50690
C         13.08446       74.50173       43.84352
O         14.95739       75.09272       42.44347
H         15.82658       76.60615       44.49557
H         15.04323       73.84855       45.53867
H         14.66721       73.19499       43.20761
H         14.50354       74.74649       41.62982
H         12.92768       75.54333       44.17354
H         12.44538       74.30413       42.95705
H         12.75952       73.81693       44.65640
N         17.81535       74.75795       43.81434
C         19.16799       74.27683       43.48830
C         20.23848       75.07912       44.23395
O         19.88475       76.12627       44.76157
C         19.40222       74.32378       41.94555
C         19.12838       75.73988       41.36235
C         18.54817       73.24664       41.25823
C         19.54310       75.90084       39.90364
H         17.56706       75.71724       43.54241
H         19.25013       73.24364       43.82678
H         20.45769       74.06976       41.74001
H         19.70299       76.49320       41.94312
H         18.04864       75.98747       41.43333
H         18.76536       73.19354       40.17304
H         18.79284       72.24886       41.68270
H         17.46561       73.44259       41.40567
H         20.62844       75.72384       39.81043
H         18.98962       75.21068       39.23695
H         19.33047       76.93925       39.57261
N         21.56561       74.71985       44.35713
C         22.23449       73.46321       43.94352
C         23.76726       73.53356       44.13301
O         24.28222       74.52542       44.62524
C         21.69741       72.25022       44.76029
C         21.69550       72.50690       46.24374
O         22.84410       72.76797       46.89567
O         20.64480       72.47668       46.86514
H         22.14842       75.41621       44.84447
H         22.08925       73.28116       42.86424
H         22.28579       71.33436       44.55513
H         20.68161       71.97490       44.45309
N         24.55095       72.46158       43.78379
C         25.98412       72.37535       44.06531
C         26.77620       71.92972       42.83103
O         26.41012       70.91017       42.26552
C         26.21392       71.29697       45.14713
C         27.67094       71.28478       45.54593
C         28.53651       70.28391       45.07317
C         28.18336       72.31334       46.35448
C         29.89684       70.32313       45.39419
C         29.54039       72.33994       46.68531
C         30.39786       71.34904       46.20063
H         24.10218       71.63148       43.37278
H         26.35724       73.32632       44.48460
H         25.90667       70.30825       44.73788
H         25.59166       71.48031       46.04988
H         28.16586       69.49337       44.43256
H         27.53081       73.09492       46.72409
H         30.56453       69.56274       45.01073
H         29.92799       73.13478       47.30909
H         31.45113       71.37901       46.44663
N         27.94134       72.53366       42.42118
C         28.54953       73.73673       42.96825
C         27.62408       74.92224       42.88024
O         27.42506       75.60913       43.86915
C         29.77841       73.96463       42.07302
C         30.16832       72.54883       41.72899
C         28.80606       71.93171       41.42261
H         28.87592       73.54497       44.01240
H         29.48094       74.43863       41.10959
H         30.57352       74.58756       42.53547
H         30.91924       72.44158       40.91775
H         30.57284       72.07833       42.65593
H         28.43323       72.20168       40.41078
H         28.89526       70.82811       41.52897
N         26.97654       75.17122       41.71006
C         26.00198       76.23474       41.54352
C         26.73822       77.53054       41.24254
O         27.40396       77.58932       40.21822
C         25.05320       75.86815       40.37888
C         24.24020       74.59793       40.69795
C         23.49318       74.10752       39.49304
O         23.71420       72.86279       39.02787
O         22.69362       74.82836       38.92226
H         27.13063       74.52054       40.92447
H         25.37374       76.30718       42.45611
H         25.66187       75.69821       39.46245
H         24.34543       76.70249       40.17862
H         23.52942       74.81866       41.52228
H         24.90899       73.77522       41.02947
N         26.70255       78.62163       42.05919
C         25.99651       78.67006       43.32013
H         24.91124       78.50134       43.16443
H         26.40471       77.90903       44.01501
H         26.13732       79.66670       43.78972
H         27.22554       79.46452       41.77416
Ca        13.07928       80.97760       46.45789
O         15.79739       82.27453       45.20767
H         16.66965       82.64834       45.48956
H         16.02925       81.44754       44.71511
O         15.87516       80.40868       48.05839
H         15.83167       79.66441       48.70941
H         15.66130       79.99190       47.18679
O         15.00918       83.28955       48.46497
H         15.88534       83.28828       48.00368
H         15.23644       83.23695       49.42729
O         11.70732       82.94994       48.54550
H         11.19179       82.41428       49.19840
H         11.03731       83.55078       48.13230

Ca 1.0



