%chk=apoCaM-CA-Ng.loop1.water3.frame744.chk
%nprocshared=20
%mem=10GB
%nosave
#b3lyp/svp scf=(tight,noincore,xqc) Test 
#IOP(5/87=12) Density=Current Pop=(MK,readradii) iop(6/33=2) iop(6/42=6)

apoCaM-CA-Ng.loop1.water3.frame744 

   0  1 
C         67.55614       41.96814        3.60329
C         68.63876       43.00076        3.71296
O         68.42073       44.14364        3.33749
H         66.63404       42.40312        3.16302
H         67.90163       41.13122        2.96069
H         67.31788       41.57388        4.61400
N         69.84539       42.65242        4.23534
C         70.96088       43.57441        4.40369
C         72.15901       43.11803        3.59225
O         72.67095       42.03714        3.82197
C         71.31980       43.76453        5.90121
C         70.88731       42.68302        6.88057
O         70.13635       43.00879        7.78700
O         71.26474       41.38512        6.82835
H         69.97970       41.67386        4.53311
H         70.70033       44.58608        4.01953
H         70.77430       44.67909        6.23092
H         72.39735       44.01473        6.01247
N         72.67360       43.91918        2.61479
C         73.83759       43.54609        1.81957
C         75.06028       43.41761        2.71558
O         75.44250       44.39742        3.34069
C         74.08289       44.60530        0.71960
C         75.22064       44.23233       -0.24812
C         75.40810       45.34180       -1.29781
C         76.54619       45.06815       -2.29630
N         76.26737       43.92393       -3.16592
H         72.21535       44.82383        2.42289
H         73.61739       42.58090        1.31119
H         74.30372       45.58626        1.19646
H         73.14948       44.71327        0.12357
H         74.96551       43.27107       -0.74164
H         76.17147       44.10632        0.31377
H         75.65337       46.28461       -0.76130
H         74.46170       45.50072       -1.85982
H         77.50293       44.90876       -1.75161
H         76.66393       45.97280       -2.93402
H         76.22019       43.03857       -2.61465
H         75.36953       44.07493       -3.68121
H         77.04075       43.83464       -3.86420
N         75.74118       42.23806        2.79147
C         76.97301       42.07388        3.57146
C         77.69177       40.76085        3.23136
O         77.10878       39.92379        2.55937
C         76.68559       42.18874        5.09964
C         75.70760       41.17049        5.61352
O         74.58204       41.58188        6.22575
O         75.94937       39.97668        5.53278
H         75.39074       41.45859        2.21672
H         77.66031       42.88601        3.25177
H         76.28852       43.19798        5.32988
H         77.60718       42.07378        5.69868
N         78.97011       40.47973        3.62792
C         79.84467       41.37304        4.36756
C         81.11641       41.64148        3.60546
O         81.05248       42.17613        2.50772
H         79.35816       39.55799        3.37678
H         80.07125       40.90519        5.34907
H         79.38973       42.35937        4.55576
N         82.32252       41.35068        4.16848
C         83.60060       41.65482        3.53281
C         83.81279       40.76196        2.33169
O         83.79627       39.54966        2.48582
C         84.77130       41.46561        4.51943
C         84.70515       42.44429        5.66562
O         83.67179       42.42760        6.52933
O         85.59975       43.25959        5.82232
H         82.32625       40.93159        5.11005
H         83.61351       42.72396        3.22250
H         85.72351       41.63982        3.96928
H         84.78667       40.42690        4.91540
N         84.03505       41.29814        1.09766
C         84.26096       40.49481       -0.09341
C         83.03843       39.73043       -0.56095
O         83.15305       39.04299       -1.56558
H         84.08620       42.32301        0.99849
H         85.10387       39.79214        0.08909
H         84.55516       41.16858       -0.92722
N         81.84052       39.79863        0.09194
C         80.64322       39.09294       -0.34113
C         80.27454       38.05096        0.69540
O         80.77789       38.10400        1.81001
C         79.48712       40.10853       -0.51972
C         79.84006       41.21277       -1.52151
O         78.32483       39.44867       -0.95029
H         81.74905       40.36832        0.93851
H         80.83758       38.56180       -1.29874
H         79.30674       40.58660        0.47457
H         77.55221       39.96997       -0.60655
H         78.99752       41.93314       -1.59587
H         80.73763       41.77599       -1.18741
H         80.03578       40.77968       -2.52451
N         79.42033       37.03499        0.37675
C         79.01661       36.01604        1.34687
C         80.22879       35.22218        1.87068
O         80.08168       34.54578        2.87912
C         77.86761       35.10999        0.77722
C         76.66049       35.92665        0.21475
C         77.34593       34.09981        1.81945
C         75.99532       36.87825        1.21233
H         79.05208       37.00289       -0.58291
H         78.60133       36.56330        2.22136
H         78.27412       34.52213       -0.07512
H         75.89063       35.21941       -0.16376
H         76.96953       36.53001       -0.66115
H         76.52024       33.49484        1.38759
H         78.13188       33.38051        2.11765
H         76.97137       34.61595        2.72802
H         76.71465       37.64736        1.55041
H         75.15311       37.40210        0.71293
H         75.59187       36.33573        2.09029
N         81.47307       35.33416        1.30810
C         82.68744       34.80326        1.91989
C         83.46642       33.94157        0.94323
O         83.70589       34.37673       -0.17495
C         83.56354       35.98948        2.38851
C         84.76925       35.49664        3.20973
O         83.98284       36.74025        1.27422
H         81.59943       35.89425        0.45367
H         82.44387       34.21496        2.83236
H         82.94183       36.63268        3.05160
H         84.64692       37.40552        1.58730
H         85.43942       34.86523        2.59344
H         85.35198       36.36203        3.58912
H         84.42146       34.90670        4.08490
N         83.95475       32.73140        1.33536
C         84.80307       31.88683        0.49715
C         85.02917       30.55811        1.20685
O         84.57168       29.54422        0.69826
C         86.14000       32.60644        0.11936
C         87.05648       31.73732       -0.74549
O         86.83387       33.00992        1.27261
H         83.72166       32.40418        2.28650
H         84.25101       31.67101       -0.44591
H         85.89083       33.50306       -0.49007
H         87.29608       33.86363        1.06229
H         87.37446       30.82646       -0.19624
H         86.53604       31.44140       -1.68027
H         87.96681       32.31445       -1.01793
N         85.71350       30.48874        2.38713
C         85.90299       29.25322        3.13472
C         85.47140       29.47420        4.57224
O         85.92435       30.43696        5.17886
C         87.37996       28.81452        3.07996
C         87.51490       27.36468        3.58241
C         88.95295       26.84404        3.52070
C         88.98377       25.34696        3.86993
N         90.34862       24.82508        3.85623
H         86.12675       31.34525        2.78005
H         85.31143       28.43191        2.67369
H         88.02351       29.51421        3.65815
H         87.71628       28.82910        2.01961
H         86.88161       26.72127        2.93087
H         87.14644       27.27872        4.62769
H         89.58122       27.41985        4.23463
H         89.35895       26.97753        2.49417
H         88.37303       24.78717        3.12507
H         88.53975       25.18250        4.87683
H         90.32205       23.79958        4.06026
H         90.78343       24.97173        2.91652
H         90.91908       25.30193        4.59139
N         84.64475       28.59794        5.20797
C         84.25284       28.79143        6.59820
C         83.28446       29.96664        6.72614
O         83.64180       30.91408        7.41157
C         83.76208       27.47151        7.23125
C         83.37436       27.65566        8.70734
C         83.06778       26.33877        9.35829
O         83.79105       25.92945       10.41844
O         82.16201       25.63679        8.93805
H         84.34423       27.74579        4.71042
H         85.17187       29.03498        7.18240
H         84.60544       26.74696        7.17240
H         82.92058       27.02378        6.67515
H         82.48256       28.31456        8.78416
H         84.21486       28.13519        9.25519
N         82.06566       30.03845        6.11282
C         81.49792       29.01889        5.25793
H         80.51784       29.36549        4.86708
H         82.16022       28.82023        4.39171
H         81.29879       28.09455        5.82805
H         81.50298       30.89229        6.25362
Ca        72.38964       39.99420        5.44182
O         73.10395       39.38858        8.44894
H         72.78538       40.24221        8.83669
H         72.45277       38.71374        8.76662
O         74.13264       37.23724        5.69639
H         74.20691       36.75870        6.55996
H         75.01960       37.12242        5.27123
O         73.71784       38.84397        2.87615
H         73.79273       39.32200        2.01259
H         74.62542       38.89594        3.26768

Ca 1.0



