%chk=apoCaM-CA-Ng.loop2.water4.frame607.chk
%nprocshared=20
%mem=10GB
%nosave
#b3lyp/svp scf=(tight,noincore,xqc) Test 
#IOP(5/87=12) Density=Current Pop=(MK,readradii) iop(6/33=2) iop(6/42=6)

apoCaM-CA-Ng.loop2.water4.frame607 

   -2  1 
C         63.73784       24.15367      -31.19358
C         62.69902       24.96600      -31.90988
O         62.39197       24.66613      -33.05554
H         64.61516       24.78917      -30.94631
H         63.30508       23.74887      -30.25638
H         64.08327       23.30636      -31.82499
N         62.12429       26.03785      -31.29386
C         61.13734       26.88226      -31.95644
C         59.83369       26.15029      -32.12542
O         59.40511       25.48087      -31.19977
C         60.87072       28.18316      -31.16806
C         60.24213       29.24523      -32.04071
O         60.94780       30.10087      -32.55311
O         58.91111       29.27925      -32.24384
H         62.43478       26.28056      -30.34027
H         61.56431       27.18467      -32.93979
H         61.84805       28.58536      -30.83604
H         60.25728       28.01543      -30.25412
N         59.08414       26.37084      -33.23402
C         57.73576       25.85099      -33.43280
C         57.70709       24.34037      -33.59123
O         58.74795       23.75759      -33.86807
C         57.18428       26.49559      -34.71940
H         59.46691       27.02896      -33.92882
H         57.12336       26.14526      -32.55298
H         56.13983       26.23898      -34.95462
H         57.24418       27.60030      -34.63194
H         57.80162       26.17908      -35.58954
N         56.55030       23.61436      -33.49907
C         55.24927       24.14395      -33.07997
C         55.03889       24.20209      -31.53909
O         56.14405       23.87434      -30.71569
C         54.08543       23.29628      -33.62020
C         54.19649       21.85589      -33.22288
O         54.33684       20.99563      -34.07384
O         54.13419       21.50272      -31.93223
H         56.60697       22.62103      -33.75131
H         55.08511       25.13854      -33.53590
H         54.05445       23.37069      -34.72427
H         53.11814       23.69003      -33.23141
N         54.27072       25.41496      -31.18002
C         53.83439       25.64333      -29.79485
C         53.99338       27.12703      -29.50995
O         54.73867       27.77473      -30.23431
H         53.41818       25.49715      -31.79598
H         54.43416       25.07595      -29.04945
H         52.77328       25.33198      -29.69742
N         53.38940       27.77507      -28.47501
C         52.31242       27.25035      -27.64032
C         52.77492       26.91462      -26.22430
O         51.93317       26.56666      -25.40805
C         51.19282       28.31448      -27.61783
C         50.69758       28.66627      -29.00522
N         50.89552       29.90999      -29.50612
O         50.11775       27.82691      -29.67868
H         53.64389       28.76798      -28.33272
H         51.88361       26.31808      -28.05032
H         51.61028       29.22844      -27.14343
H         50.33244       27.97296      -27.00473
H         51.39856       30.62316      -28.95814
H         50.56056       30.16291      -30.44784
N         54.09266       26.94273      -25.86846
C         54.58909       26.60432      -24.53983
C         54.26661       25.18814      -24.11938
O         54.04155       24.96763      -22.93727
H         54.79922       27.20408      -26.56923
H         54.19185       27.31657      -23.78369
H         55.69512       26.70528      -24.53992
N         54.22127       24.17727      -25.03075
C         53.88222       22.80114      -24.67951
C         54.99347       21.83694      -25.02198
O         56.00160       22.24137      -25.56418
C         52.54281       22.39859      -25.34828
C         51.38046       23.05317      -24.60830
O         52.51741       22.78450      -26.69819
H         54.40172       24.39567      -26.02288
H         53.77570       22.68192      -23.58048
H         52.42888       21.29631      -25.26370
H         51.65798       22.49212      -27.09817
H         51.26952       24.10993      -24.92008
H         50.44900       22.49346      -24.83004
H         51.55003       23.01324      -23.51244
N         54.89385       20.53121      -24.64560
C         55.89556       19.51315      -24.92889
C         55.26548       18.34223      -25.70165
O         54.25643       17.78766      -25.29404
C         56.60509       19.08931      -23.59995
C         57.24899       17.67737      -23.72916
C         57.65514       20.16850      -23.23928
C         58.12949       17.22003      -22.56859
H         54.07575       20.24173      -24.08790
H         56.70639       19.92299      -25.57336
H         55.85214       19.04898      -22.78252
H         57.86441       17.62997      -24.65107
H         56.42184       16.93737      -23.81374
H         57.99796       20.05908      -22.19020
H         58.53871       20.10107      -23.91330
H         57.23372       21.18992      -23.34347
H         59.02765       17.86527      -22.47583
H         57.56259       17.21091      -21.61595
H         58.48351       16.18684      -22.78189
N         55.93575       17.86942      -26.78979
C         55.64720       16.68320      -27.59069
C         56.72111       15.59681      -27.40165
O         56.37091       14.42896      -27.49629
C         55.62535       17.03528      -29.10414
C         54.71216       18.18982      -29.42259
O         53.50669       18.04009      -29.29859
O         55.21350       19.41370      -29.76195
H         56.75338       18.39254      -27.03354
H         54.66346       16.26725      -27.28603
H         55.30904       16.13632      -29.68629
H         56.65240       17.29412      -29.44279
N         58.04946       15.89139      -27.20548
C         59.09058       14.88487      -27.04938
C         60.47798       15.44487      -27.45773
O         61.33689       15.56834      -26.59734
C         59.04403       14.39278      -25.58482
C         59.55029       12.98138      -25.45401
C         60.86712       12.69807      -25.06486
C         58.66684       11.91904      -25.72601
C         61.29258       11.36725      -24.95870
C         59.09337       10.59567      -25.61102
C         60.40637       10.31930      -25.23077
H         58.33050       16.84963      -27.04000
H         58.85659       14.02711      -27.71081
H         57.98561       14.35909      -25.24653
H         59.53003       15.11043      -24.88603
H         61.56089       13.50055      -24.85109
H         57.64282       12.11841      -26.02104
H         62.30894       11.14414      -24.66458
H         58.40692        9.78384      -25.81627
H         60.73306        9.29131      -25.14686
N         60.79519       15.78898      -28.75363
C         62.09478       16.33565      -29.17323
C         62.47839       17.66749      -28.52670
O         63.63367       18.06355      -28.59872
C         61.95362       16.52106      -30.68783
C         60.92713       15.46701      -31.05605
C         59.94788       15.49374      -29.88406
H         62.85567       15.57163      -28.91076
H         61.47663       17.50312      -30.90406
H         62.91875       16.46048      -31.23912
H         60.44553       15.59625      -32.04832
H         61.45198       14.48540      -31.03170
H         59.15814       16.26934      -29.96719
H         59.49750       14.47968      -29.82012
N         61.54768       18.39035      -27.85338
C         61.83033       19.55432      -27.02842
C         62.74804       19.10360      -25.91773
O         63.81507       19.67468      -25.74855
C         60.54588       20.12633      -26.36923
C         59.56882       20.86273      -27.30505
C         58.89815       20.00662      -28.32947
O         58.68442       20.41044      -29.45085
O         58.56643       18.76498      -28.05128
H         60.60483       18.02856      -27.87238
H         62.30290       20.36984      -27.62042
H         60.86734       20.89255      -25.62902
H         60.00621       19.33150      -25.80277
H         60.08579       21.69161      -27.82800
H         58.77390       21.28878      -26.65326
N         62.37599       18.05942      -25.12403
C         63.15398       17.57279      -24.01015
H         64.07896       18.16424      -23.85764
H         62.52964       17.64580      -23.09639
H         63.42630       16.50864      -24.17736
H         61.48270       17.58235      -25.30912
Ca        56.16403       21.48827      -30.35019
O         53.99729       22.14869      -29.17170
H         54.14682       22.39321      -28.23005
H         53.38847       21.36983      -29.16556
O         57.30966       20.56655      -32.73044
H         58.17620       20.88167      -33.08899
H         56.92663       20.01956      -33.45773
O         57.32300       22.93573      -28.33793
H         57.75124       23.78987      -28.09701
H         56.71842       22.75647      -27.58854
O         58.83062       22.32985      -31.18211
H         59.71421       22.06313      -31.53449
H         58.77954       23.29520      -31.33927

Ca 1.0



