%chk=apoCaM-CA-Ng.loop1.water4.frame711.chk
%nprocshared=20
%mem=10GB
%nosave
#b3lyp/svp scf=(tight,noincore,xqc) Test 
#IOP(5/87=12) Density=Current Pop=(MK,readradii) iop(6/33=2) iop(6/42=6)

apoCaM-CA-Ng.loop1.water4.frame711 

   0  1 
C         72.03805       26.41723      -15.37523
C         73.06954       26.31006      -16.45999
O         72.71363       26.27326      -17.62911
H         71.01266       26.44329      -15.80057
H         72.12135       25.54425      -14.69365
H         72.20788       27.34715      -14.79209
N         74.38657       26.25210      -16.12657
C         75.47783       26.14886      -17.09269
C         76.22639       24.83486      -16.90658
O         75.86170       24.05700      -16.03358
C         76.39275       27.38940      -16.96640
C         76.87725       27.60879      -15.55879
O         77.58869       26.66052      -14.92515
O         76.58437       28.63542      -14.96643
H         74.62943       26.27561      -15.12313
H         75.08501       26.13384      -18.13332
H         75.80716       28.28283      -17.27905
H         77.25992       27.30823      -17.65388
N         77.26572       24.50481      -17.72935
C         77.97071       23.22735      -17.66637
C         79.43509       23.42168      -17.31028
O         80.11098       24.23112      -17.93202
C         77.80175       22.42838      -18.97753
C         78.41144       23.06895      -20.23582
C         78.20708       22.15142      -21.45082
C         78.76311       22.73810      -22.75918
N         80.21656       22.91589      -22.72398
H         77.55512       25.17957      -18.45292
H         77.51419       22.57690      -16.88812
H         76.71456       22.26357      -19.14607
H         78.27698       21.43262      -18.82853
H         79.49701       23.21440      -20.07865
H         77.93195       24.05048      -20.43401
H         77.11641       21.98474      -21.58926
H         78.68676       21.16553      -21.26165
H         78.26932       23.71027      -22.97849
H         78.51143       22.03251      -23.58184
H         80.48628       23.64661      -22.02838
H         80.68689       22.01028      -22.49440
H         80.54056       23.23322      -23.66597
N         79.99868       22.65733      -16.33205
C         81.40695       22.74838      -15.92687
C         81.79378       21.58977      -14.99409
O         80.90256       20.88822      -14.53199
C         81.65427       24.12097      -15.25171
C         80.71912       24.35850      -14.09571
O         79.94329       25.29725      -14.12990
O         80.72856       23.54659      -13.02145
H         79.38927       21.95357      -15.89002
H         82.02877       22.65061      -16.83893
H         81.50488       24.92828      -15.99849
H         82.68776       24.22427      -14.88752
N         83.07564       21.27802      -14.63551
C         84.32305       21.87810      -15.09156
C         84.67559       21.56141      -16.52922
O         83.86169       21.03947      -17.27234
H         83.18883       20.50868      -13.95762
H         85.13306       21.41023      -14.48915
H         84.37890       22.96037      -14.88836
N         85.94598       21.81544      -16.95589
C         86.46603       21.48176      -18.28134
C         86.37767       19.98430      -18.53524
O         86.90983       19.21499      -17.74538
C         87.95109       21.92546      -18.36516
C         88.62006       21.69705      -19.69904
O         89.91589       22.03184      -19.84724
O         88.01539       21.21872      -20.64549
H         86.59152       22.24876      -16.27673
H         85.89129       22.04268      -19.05112
H         88.53503       21.38049      -17.59020
H         88.01522       23.01221      -18.14297
N         85.76774       19.50115      -19.65797
C         85.75702       18.08464      -19.98959
C         84.89775       17.24377      -19.06748
O         84.94704       16.02986      -19.18643
H         85.36316       20.16325      -20.33778
H         86.80461       17.71326      -19.97080
H         85.36848       17.94252      -21.02198
N         84.03927       17.81543      -18.17543
C         83.14989       17.05658      -17.30382
C         83.30860       17.49281      -15.85291
O         84.06621       18.40400      -15.56081
C         81.68079       17.23521      -17.78502
C         81.18234       18.68610      -17.72319
O         81.55704       16.77726      -19.10653
H         83.96147       18.83418      -18.15116
H         83.38628       15.97186      -17.35580
H         80.99558       16.64437      -17.13542
H         81.53815       15.78507      -19.06675
H         81.24118       19.07893      -16.68713
H         81.76811       19.34479      -18.39648
H         80.12131       18.72911      -18.04843
N         82.55690       16.88437      -14.89235
C         82.51933       17.31482      -13.49757
C         83.87599       17.11107      -12.84371
O         84.41618       18.08456      -12.33899
C         81.34948       16.60229      -12.74646
C         79.99424       17.02038      -13.39995
C         81.35371       16.96798      -11.24829
C         78.77132       16.28836      -12.84931
H         81.95009       16.10694      -15.18366
H         82.27767       18.40041      -13.46377
H         81.48409       15.50178      -12.83597
H         80.00632       16.80861      -14.48810
H         79.84251       18.11639      -13.28116
H         80.55023       16.43417      -10.70325
H         82.30728       16.66294      -10.77036
H         81.21838       18.06240      -11.11186
H         77.86860       16.62499      -13.40344
H         78.88513       15.19349      -12.99329
H         78.60589       16.51161      -11.77744
N         84.47403       15.88468      -12.80337
C         85.78836       15.62306      -12.20126
C         86.08370       14.12715      -12.17331
O         85.90276       13.45467      -13.17911
C         86.97330       16.35884      -12.90066
C         87.09206       16.07087      -14.39901
O         86.88194       17.74618      -12.70870
H         83.95323       15.09301      -13.21322
H         85.77428       15.97826      -11.14621
H         87.90495       15.99503      -12.39915
H         87.80310       18.09615      -12.58429
H         87.97024       16.61549      -14.80657
H         87.25047       14.99151      -14.59074
H         86.18171       16.41335      -14.93330
N         86.58710       13.55944      -11.03992
C         86.94407       12.14728      -10.89451
C         87.35911       11.91490       -9.44182
O         86.63537       11.24388       -8.72000
C         88.03292       11.71659      -11.93170
C         88.48739       10.26624      -11.74659
O         89.14636       12.57139      -11.87167
H         86.72671       14.17802      -10.22450
H         86.03035       11.53905      -11.08271
H         87.58387       11.78627      -12.94673
H         89.58197       12.55618      -12.76418
H         87.62151        9.57722      -11.83154
H         89.22458       10.00428      -12.53645
H         88.97473       10.12727      -10.75877
N         88.49219       12.48451       -8.94244
C         88.87945       12.47630       -7.53891
C         89.15531       13.90697       -7.12257
O         89.89640       14.59512       -7.81344
C         90.12509       11.59524       -7.31176
C         90.58853       11.67837       -5.84058
C         91.70773       10.68445       -5.51498
C         92.22141       10.83097       -4.06834
N         92.93795       12.09251       -3.85542
H         89.11142       12.99617       -9.58344
H         88.07760       12.04368       -6.89909
H         90.96036       11.90738       -7.97598
H         89.85018       10.54607       -7.55957
H         89.73225       11.46854       -5.16130
H         90.94195       12.71200       -5.65575
H         92.55887       10.80734       -6.21794
H         91.29615        9.65862       -5.63867
H         92.92395        9.99317       -3.86606
H         91.37687       10.74746       -3.34777
H         93.32780       12.10349       -2.88547
H         93.73074       12.17207       -4.53336
H         92.30246       12.91467       -3.95395
N         88.65873       14.39961       -5.95582
C         88.95836       15.75228       -5.51281
C         88.19676       16.76869       -6.35637
O         88.85739       17.59433       -6.97025
C         88.75393       15.92812       -3.99304
C         89.70746       15.01303       -3.19518
C         89.62601       15.22068       -1.70667
O         88.86774       16.04518       -1.21970
O         90.41379       14.48811       -0.89697
H         88.11505       13.77384       -5.34186
H         90.04904       15.93889       -5.65621
H         87.71720       15.71411       -3.68288
H         88.99178       16.98465       -3.73711
H         90.75611       15.21248       -3.50605
H         89.47530       13.94833       -3.40998
N         86.83702       16.79702       -6.49667
C         85.90817       15.87181       -5.88185
H         84.87417       16.11203       -6.20826
H         86.12447       14.83090       -6.19495
H         85.92211       15.96513       -4.78230
H         86.43065       17.52000       -7.11098
Ca        78.03436       26.91633      -12.72307
O         77.56395       29.40133      -11.00024
H         76.68672       28.95982      -11.12832
H         77.82208       29.70667      -11.90627
O         80.78506       26.98165      -11.19280
H         81.12300       27.88900      -11.39980
H         80.96872       26.86297      -10.22720
O         80.00312       29.00802      -13.88930
H         80.46565       28.14349      -14.02744
H         79.53699       29.17881      -14.74579
O         76.83379       23.85538      -12.67824
H         76.96778       24.26779      -13.56793
H         75.85264       23.74661      -12.60092

Ca 1.0



