%chk=apoCaM-CA-Ng.loop1.water3.frame74.chk
%nprocshared=20
%mem=10GB
%nosave
#b3lyp/svp scf=(tight,noincore,xqc) Test 
#IOP(5/87=12) Density=Current Pop=(MK,readradii) iop(6/33=2) iop(6/42=6)

apoCaM-CA-Ng.loop1.water3.frame74 

   0  1 
C         51.95073       43.84515       87.66410
C         51.41860       44.60069       88.84839
O         52.17550       44.91285       89.75654
H         53.03739       43.64439       87.77309
H         51.41599       42.87619       87.56904
H         51.78783       44.43728       86.73845
N         50.10013       44.93591       88.89343
C         49.48840       45.70099       89.98096
C         49.44518       44.97427       91.33233
O         48.93179       45.56661       92.27142
C         48.05463       46.13990       89.58873
C         47.07058       45.00103       89.48441
O         45.99931       44.96861       90.29968
O         47.22132       44.11494       88.65923
H         49.52720       44.68396       88.07416
H         50.07605       46.63861       90.10455
H         48.08458       46.69298       88.62439
H         47.68230       46.84794       90.36100
N         49.94835       43.71768       91.52371
C         49.84621       42.99093       92.78917
C         51.21447       42.88918       93.44670
O         52.15204       42.54982       92.73787
C         49.27193       41.58227       92.54969
C         47.87382       41.62367       91.91617
C         47.23391       40.23085       91.93549
C         45.85487       40.24084       91.26562
N         45.20615       38.93602       91.39338
H         50.42287       43.23209       90.75157
H         49.13964       43.48390       93.46727
H         49.20078       41.07506       93.53447
H         49.95049       40.98013       91.90560
H         47.95304       42.00326       90.87358
H         47.21975       42.31071       92.49718
H         47.12069       39.91338       92.99616
H         47.88844       39.49975       91.41263
H         45.97312       40.49585       90.18875
H         45.20890       41.01210       91.74100
H         44.28573       38.96010       90.89827
H         45.80260       38.18883       90.96964
H         45.03813       38.72111       92.40364
N         51.45976       43.10594       94.78210
C         50.49290       43.38181       95.85031
C         49.45128       42.27262       95.95631
O         48.27753       42.53316       95.73120
C         49.87218       44.80095       95.79815
C         50.87908       45.90165       95.97873
O         52.19892       45.64380       96.06617
O         50.48568       47.05035       96.08686
H         52.43720       42.98711       95.09330
H         51.03285       43.38069       96.82319
H         49.16662       44.88090       96.65490
H         49.29398       45.00066       94.88188
N         49.77534       41.00217       96.33972
C         51.12468       40.60399       96.72066
C         51.21521       39.16918       97.22743
O         50.21478       38.46575       97.23515
H         49.00538       40.31901       96.40213
H         51.45987       41.27321       97.53224
H         51.80196       40.71507       95.84927
N         52.39221       38.62874       97.66503
C         53.65955       39.35634       97.70961
C         53.67221       40.49237       98.73468
O         54.60701       41.28128       98.70036
C         54.84541       38.38415       97.93623
C         54.82553       37.62282       99.24072
O         55.71315       36.81816       99.47464
O         53.84618       37.80201      100.14838
H         52.38368       37.63346       97.93939
H         53.81786       39.80197       96.70346
H         55.80007       38.95043       97.87594
H         54.84250       37.63976       97.10948
N         52.69371       40.63361       99.68010
C         52.65642       41.72143      100.64967
C         51.30128       42.40649      100.68662
O         50.40569       42.04069       99.93703
H         51.95308       39.92103       99.75163
H         53.45214       42.47411      100.46045
H         52.82891       41.28679      101.65742
N         51.07090       43.38191      101.61296
C         49.75153       43.97960      101.85411
C         49.22154       44.77827      100.65957
O         49.90642       44.89833       99.65331
C         49.74302       44.81179      103.17209
C         50.62918       46.06656      103.14089
O         50.06365       43.99278      104.27250
H         51.85802       43.63431      102.22818
H         49.03638       43.14367      102.02268
H         48.71035       45.17153      103.35592
H         51.04553       43.85591      104.29490
H         50.53069       46.60660      104.10728
H         51.69743       45.80818      102.99389
H         50.30593       46.74860      102.32732
N         47.96616       45.32258      100.71002
C         47.30072       45.98050       99.58767
C         47.01105       47.43678       99.92099
O         46.31949       47.69997      100.89565
C         45.96478       45.23302       99.27269
C         46.24668       43.75450       98.90057
C         45.17685       45.94906       98.15373
C         44.97993       42.91887       98.69772
H         47.41694       45.22175      101.57600
H         47.93774       45.94489       98.67709
H         45.33404       45.24754      100.19108
H         46.81358       43.27277       99.72551
H         46.86784       43.70813       97.98010
H         44.19392       45.46924       97.97915
H         44.94566       46.99372       98.44189
H         45.75657       45.95885       97.20735
H         44.35168       42.94330       99.61375
H         44.38597       43.27699       97.83346
H         45.26347       41.86593       98.49049
N         47.45634       48.42960       99.09310
C         47.10360       49.84105       99.25186
C         46.30399       50.37592       98.05626
O         45.90215       51.52978       98.10790
C         48.37076       50.69159       99.51147
C         49.34142       50.70628       98.32562
O         49.04602       50.20599      100.64317
H         48.04281       48.16497       98.28841
H         46.44571       49.96576      100.14057
H         48.07039       51.75144       99.68975
H         48.52849       50.50242      101.43745
H         50.21639       51.34471       98.57000
H         49.70942       49.68687       98.09670
H         48.85117       51.12316       97.42121
N         46.01094       49.59854       96.96595
C         45.17750       50.00414       95.82999
C         45.81746       51.12126       94.99473
O         46.85339       51.65646       95.36409
C         43.72320       50.33229       96.30340
C         43.13159       49.18323       97.12774
O         42.87821       50.54383       95.20280
H         46.35053       48.62851       96.93374
H         45.11093       49.12418       95.15041
H         43.74686       51.25101       96.93146
H         42.11359       51.09445       95.51550
H         42.09143       49.43242       97.42685
H         43.11391       48.24775       96.52786
H         43.71883       49.01617       98.05268
N         45.23558       51.49521       93.81657
C         45.71944       52.55516       92.92842
C         47.01086       52.20497       92.19305
O         47.51869       53.05917       91.47887
C         44.60365       52.92054       91.91823
C         44.29798       51.79565       90.90848
C         42.97642       52.05765       90.17675
C         42.63708       50.97365       89.13813
N         42.53851       49.63423       89.72657
H         44.36594       51.02198       93.55615
H         45.89062       53.46156       93.55108
H         44.86505       53.84445       91.35635
H         43.69370       53.14418       92.51917
H         44.19718       50.83257       91.43859
H         45.13840       51.70572       90.18617
H         43.02556       53.03952       89.65829
H         42.15526       52.10215       90.92706
H         43.40418       50.96915       88.33360
H         41.65812       51.23868       88.68075
H         42.18915       48.96911       88.99999
H         43.47764       49.29595       90.03580
H         41.87299       49.63473       90.53343
N         47.60788       50.98562       92.31961
C         48.87388       50.65613       91.67737
C         48.69055       50.40767       90.19344
O         47.90601       49.54319       89.82622
C         49.51435       49.41289       92.32954
C         49.71782       49.51651       93.85806
C         50.49485       50.72884       94.30793
O         51.69994       50.60290       94.89757
O         50.01450       51.84405       94.18372
H         47.18229       50.28082       92.93446
H         49.59051       51.49024       91.82725
H         50.50449       49.24896       91.85023
H         48.88780       48.51425       92.13350
H         50.25210       48.60065       94.16788
H         48.74075       49.51932       94.38582
N         49.42119       51.10185       89.27828
C         49.32251       50.84027       87.85790
H         50.02376       51.49794       87.30116
H         49.59431       49.78262       87.64804
H         48.28884       51.03406       87.50278
H         50.09092       51.81841       89.59613
Ca        52.76945       48.63336       95.17042
O         52.32314       47.23883       92.45647
H         51.44986       46.93218       92.80725
H         52.92355       46.46153       92.57801
O         52.27074       48.95137       98.29431
H         51.85040       48.43300       99.02583
H         53.03115       49.41773       98.72366
O         54.79713       47.38065       97.18507
H         54.78318       47.40853       98.17466
H         55.53419       46.75796       96.96376

Ca 1.0



