%chk=apoCaM-CA-Ng.loop1.water3.frame1253.chk
%nprocshared=20
%mem=10GB
%nosave
#b3lyp/svp scf=(tight,noincore,xqc) Test 
#IOP(5/87=12) Density=Current Pop=(MK,readradii) iop(6/33=2) iop(6/42=6)

apoCaM-CA-Ng.loop1.water3.frame1253 

   0  1 
C         22.36583       38.69922      121.80340
C         23.06308       39.97184      122.17272
O         23.68512       40.57759      121.31078
H         21.27572       38.81077      121.97156
H         22.54544       38.45000      120.73517
H         22.75500       37.86782      122.42895
N         23.04001       40.41327      123.46389
C         23.76109       41.60316      123.90458
C         24.99366       41.18640      124.67814
O         25.23799       41.66322      125.77858
C         22.83203       42.57701      124.67020
C         22.24643       42.04737      125.96157
O         22.50510       40.92725      126.37380
O         21.43135       42.83835      126.68392
H         22.55173       39.83619      124.16379
H         24.14797       42.15410      123.02077
H         21.99404       42.86356      123.99986
H         23.40665       43.49775      124.91195
N         25.83413       40.27411      124.11928
C         27.08174       39.85314      124.73293
C         28.03734       41.04117      124.76962
O         28.46985       41.37315      125.86415
C         27.65034       38.57963      124.04998
C         26.63798       37.41850      124.17801
C         27.10986       36.12987      123.49920
C         26.03735       35.03642      123.64652
N         26.43755       33.80274      122.97302
H         25.57317       39.86699      123.21014
H         26.87595       39.53541      125.78178
H         28.59506       38.28606      124.55758
H         27.88210       38.74084      122.98133
H         25.67428       37.70465      123.70675
H         26.45005       37.21621      125.25571
H         28.06150       35.78706      123.95984
H         27.28205       36.32885      122.41878
H         25.07882       35.39267      123.20531
H         25.86531       34.82688      124.72615
H         25.68482       33.08741      123.09890
H         26.56646       33.97898      121.95019
H         27.32559       33.43782      123.38677
N         28.36082       41.81528      123.68395
C         27.92904       41.60177      122.30132
C         26.91772       42.65457      121.85853
O         26.61626       43.56812      122.61374
C         29.16608       41.58180      121.37650
C         29.84421       42.92392      121.35247
O         29.14645       43.99760      120.93788
O         30.99615       43.04391      121.72677
H         28.94098       42.64980      123.86655
H         27.41841       40.63868      122.19335
H         28.86566       41.32763      120.33881
H         29.87263       40.79705      121.72743
N         26.32523       42.55331      120.63359
C         25.30820       43.47775      120.15462
C         25.86088       44.79081      119.63391
O         27.06294       44.99184      119.60617
H         26.53963       41.73207      120.04770
H         24.54926       43.64187      120.94893
H         24.79198       43.00934      119.28880
N         24.99011       45.73098      119.16981
C         25.36747       46.99099      118.51642
C         24.63112       47.09020      117.17213
O         23.80157       46.22658      116.91825
C         24.95195       48.14574      119.44979
C         25.69537       48.08204      120.75297
O         25.02459       47.92032      121.90944
O         26.91138       48.18325      120.76829
H         23.98238       45.53718      119.28372
H         26.46411       47.02786      118.33483
H         23.85800       48.08288      119.64315
H         25.15835       49.13215      119.00486
N         24.80478       48.07448      116.23520
C         25.78409       49.15052      116.20518
C         27.16539       48.62505      115.94082
O         27.31739       47.78749      115.06287
H         24.18295       48.03634      115.41149
H         25.72858       49.82316      117.07943
H         25.54782       49.78256      115.32151
N         28.24189       49.12484      116.60543
C         29.59000       48.62185      116.37698
C         29.64260       47.18951      116.86829
O         29.30339       46.96812      118.02068
C         30.63472       49.52367      117.08229
C         32.07195       49.08106      116.78149
O         30.41419       49.53984      118.46898
H         28.09557       49.89072      117.28133
H         29.82117       48.67449      115.28829
H         30.50651       50.55321      116.66940
H         30.78053       50.39808      118.80912
H         32.26031       48.05038      117.14226
H         32.26194       49.10893      115.68744
H         32.79147       49.76748      117.27721
N         30.03901       46.17307      116.04422
C         30.10278       44.75989      116.42272
C         31.02076       44.58488      117.61847
O         30.61785       44.91178      118.72003
C         28.67736       44.16592      116.67842
C         27.82105       44.25826      115.39005
C         28.74875       42.71197      117.19347
C         26.36500       43.82195      115.57695
H         30.33681       46.41193      115.08595
H         30.54743       44.20479      115.56651
H         28.18627       44.77131      117.46218
H         28.28204       43.64752      114.58380
H         27.79797       45.31143      115.04906
H         27.74039       42.32725      117.44746
H         29.21595       42.04822      116.43699
H         29.33282       42.64987      118.13434
H         26.28879       42.74584      115.83092
H         25.88053       44.42430      116.37335
H         25.81049       43.97700      114.62740
N         32.27016       44.06347      117.48166
C         33.15258       43.85919      118.62749
C         34.39128       44.74093      118.58104
O         35.17430       44.64913      119.51744
C         33.49784       42.35725      118.77645
C         34.34622       41.80834      117.62808
O         32.31682       41.60174      118.85400
H         32.60429       43.80930      116.54114
H         32.63510       44.14428      119.56931
H         34.09084       42.21216      119.71047
H         31.91941       41.77773      119.74400
H         34.57283       40.73837      117.82158
H         33.80611       41.87668      116.66223
H         35.30674       42.35922      117.55266
N         34.64472       45.62683      117.56750
C         35.83235       46.48248      117.57306
C         35.76666       47.43678      118.76349
O         34.99822       48.38579      118.72085
C         35.99794       47.25878      116.23616
C         36.23918       46.31221      115.05201
O         34.85520       48.03635      115.98548
H         33.98891       45.69180      116.77563
H         36.72330       45.82483      117.68417
H         36.89039       47.92042      116.33448
H         35.11521       48.74008      115.33502
H         36.37078       46.90192      114.11927
H         37.16144       45.71720      115.21922
H         35.38457       45.61959      114.90443
N         36.50257       47.18133      119.88956
C         36.45966       47.94325      121.14067
C         35.07003       48.00475      121.75995
O         34.12872       48.44025      121.11694
C         37.06885       49.34929      121.02768
C         38.57254       49.27227      120.69842
C         39.31773       50.60606      120.88000
C         39.38861       51.05173      122.35712
N         40.20269       52.25629      122.50796
H         37.11291       46.35017      119.88590
H         37.10680       47.41230      121.87461
H         36.94870       49.80189      122.03218
H         36.53031       49.98835      120.29557
H         38.68330       48.92207      119.64958
H         39.07168       48.52864      121.35931
H         38.84967       51.39585      120.25484
H         40.36035       50.45029      120.52631
H         39.83968       50.23640      122.96712
H         38.37540       51.26209      122.75704
H         41.17899       52.07438      122.18023
H         39.78353       53.04310      121.96189
H         40.23242       52.52287      123.51917
N         34.89230       47.66157      123.06713
C         33.58955       47.71070      123.71731
C         32.68766       46.60004      123.22308
O         31.61714       46.93546      122.74662
C         33.68316       47.67755      125.25487
C         34.35773       48.94361      125.79640
C         34.36345       48.93469      127.29579
O         35.01339       47.96248      127.96317
O         33.77878       49.80757      127.91742
H         35.71983       47.41173      123.62834
H         33.10450       48.68652      123.47758
H         34.21289       46.77521      125.61765
H         32.64666       47.65135      125.66224
H         33.79517       49.83541      125.43773
H         35.40223       49.01708      125.42838
N         32.97072       45.26586      123.30118
C         34.18831       44.65575      123.79459
H         34.95573       45.37642      124.10701
H         33.94701       44.00374      124.65977
H         34.62907       44.02962      122.99038
H         32.25217       44.61253      122.97042
Ca        29.72527       46.17402      120.98158
O         29.69592       49.26952      121.86109
H         28.78998       49.53908      122.15503
H         30.22984       49.25718      122.69453
O         32.20318       47.11458      119.47583
H         31.84621       47.92196      119.92226
H         32.52642       46.54144      120.21402
O         27.82125       46.79151      123.22336
H         27.83655       46.97653      124.19506
H         27.78360       45.80516      123.15860

Ca 1.0



