%chk=apoCaM-CA-Ng.loop4.water4.frame59.chk
%nprocshared=20
%mem=10GB
%nosave
#b3lyp/svp scf=(tight,noincore,xqc) Test 
#IOP(5/87=12) Density=Current Pop=(MK,readradii) iop(6/33=2) iop(6/42=6)

apoCaM-CA-Ng.loop4.water4.frame59 

   -3  1 
C         36.86190       39.37811       82.99814
C         35.42745       39.04460       82.72468
O         34.59538       39.92234       82.88397
H         37.52640       38.51383       82.79454
H         37.16884       40.22510       82.34796
H         36.97634       39.67905       84.06066
N         35.06645       37.80470       82.27697
C         33.69925       37.41122       81.94675
C         33.13492       38.31999       80.87166
O         32.14518       38.98677       81.10404
C         32.81836       37.18572       83.20999
C         32.69025       38.31909       84.19056
O         32.15195       39.36599       83.87422
O         33.13990       38.16099       85.45111
H         35.80747       37.10703       82.11348
H         33.73051       36.40209       81.47808
H         33.26600       36.33021       83.76169
H         31.79962       36.87245       82.89154
N         33.75963       38.35866       79.65392
C         33.40052       39.13862       78.46350
C         32.10286       38.65235       77.82210
O         32.18486       38.11948       76.72322
C         33.49344       40.67021       78.69156
C         33.21821       41.50058       77.40606
C         34.87590       41.02159       79.27852
C         34.17106       41.22917       76.23568
H         34.60008       37.76864       79.55280
H         34.19631       38.90811       77.72126
H         32.72160       40.96946       79.41651
H         33.28312       42.58269       77.65852
H         32.18107       41.30678       77.05940
H         35.69618       40.68670       78.61185
H         34.98472       42.10635       79.42494
H         35.01869       40.54011       80.26582
H         35.22134       41.45794       76.50848
H         34.09691       40.17865       75.89147
H         33.89301       41.87384       75.37797
N         30.88460       38.74663       78.42919
C         29.69372       38.13318       77.85879
C         29.18572       38.91169       76.64558
O         29.12607       38.30907       75.58326
C         28.61491       37.85166       78.93958
C         29.14092       36.93882       80.01525
O         29.54001       35.81998       79.73562
O         29.16530       37.34977       81.29722
H         30.79562       39.19308       79.34416
H         29.96885       37.11203       77.50577
H         27.73867       37.36188       78.46308
H         28.25700       38.75442       79.44973
N         28.78712       40.22005       76.66694
C         28.82743       41.06915       77.84759
C         28.13469       42.40029       77.66792
O         27.71834       42.70916       76.56024
H         28.42940       40.60858       75.78091
H         29.88307       41.22228       78.14602
H         28.26021       40.58561       78.62457
N         27.93177       43.27982       78.69556
C         28.30069       43.15755       80.11262
C         29.82274       42.98327       80.35514
O         30.11490       41.63057       80.54838
C         27.46426       42.10432       80.88776
C         25.99029       42.31240       80.71249
O         25.30145       41.43085       80.22342
O         25.41792       43.46507       81.10607
H         27.45937       44.16403       78.44686
H         28.04263       44.13200       80.58381
H         27.70809       42.17078       81.97075
H         27.71282       41.07261       80.58088
N         30.68460       43.52712       79.28714
C         30.45667       44.92771       78.89304
C         30.50456       45.02898       77.38477
O         30.89133       44.07209       76.72611
H         31.69562       43.38497       79.51514
H         31.19294       45.61436       79.36520
H         29.45604       45.27494       79.20945
N         30.03223       46.14238       76.75752
C         29.93129       46.22025       75.29986
C         31.28510       46.39336       74.62974
O         31.35197       46.24115       73.41638
C         29.01338       47.38199       74.86704
C         27.56564       47.19709       75.35869
C         26.64962       48.31561       74.92152
N         25.33974       48.27874       75.25640
O         27.07711       49.25599       74.26665
H         29.65245       46.90537       77.33795
H         29.47234       45.27303       74.93475
H         28.98870       47.42705       73.75521
H         29.42789       48.34110       75.25077
H         27.53909       47.14583       76.46719
H         27.16882       46.24136       74.95244
H         24.96000       47.49374       75.80572
H         24.70278       49.03460       74.96402
N         32.38605       46.78083       75.33160
C         33.68502       47.04262       74.72340
C         33.98500       48.52995       74.78494
O         34.23954       49.11175       73.74046
C         34.80879       46.15082       75.34176
C         34.64598       44.70280       74.86335
C         34.88967       46.15933       76.88192
H         32.28994       46.96283       76.34030
H         33.67206       46.80056       73.63520
H         35.78540       46.50541       74.94244
H         33.67957       44.28029       75.20754
H         34.68491       44.66090       73.75331
H         35.47881       44.07553       75.24865
H         33.95186       45.77560       77.33812
H         35.71547       45.49787       77.21885
H         35.11992       47.16127       77.28346
N         33.96422       49.21589       75.96072
C         34.27676       50.63566       76.06361
C         34.42242       51.04849       77.51968
O         35.46721       51.59332       77.85234
C         33.30323       51.55656       75.26958
C         31.81580       51.41999       75.50305
N         30.96798       52.26469       74.87012
O         31.36133       50.55061       76.22738
H         33.73204       48.70826       76.82252
H         35.27843       50.80814       75.60641
H         33.45623       51.39517       74.18255
H         33.59898       52.60888       75.47704
H         31.32843       53.00127       74.24500
H         29.94917       52.18799       75.00642
N         33.45126       50.81170       78.44908
C         33.56338       51.24577       79.83777
C         33.52231       50.07400       80.79156
O         33.15692       48.98610       80.37813
C         32.41052       52.22215       80.13697
C         32.48054       53.40188       79.20035
C         31.47502       53.62320       78.24343
C         33.57604       54.27688       79.26142
C         31.57366       54.69969       77.35616
C         33.67099       55.35174       78.37724
C         32.67105       55.56565       77.41855
O         32.75670       56.59605       76.55406
H         32.59322       50.31664       78.17747
H         34.53760       51.75186       80.00495
H         32.44561       52.58170       81.18725
H         31.44850       51.67720       79.99817
H         30.62378       52.95693       78.17149
H         34.35993       54.12233       79.99193
H         30.79957       54.85724       76.61555
H         34.52530       56.01341       78.43678
H         33.50279       57.21270       76.56473
N         33.86813       50.26493       82.10216
C         33.85711       49.27537       83.18261
C         34.96145       48.22409       83.09086
O         35.77190       48.16418       84.00659
C         32.46557       48.63382       83.37432
C         31.35750       49.67667       83.60764
C         31.61280       50.51321       84.83194
O         31.73525       51.72391       84.73378
O         31.71172       49.93042       86.04220
H         34.13465       51.22263       82.37923
H         34.07674       49.83179       84.12260
H         32.50254       47.94987       84.25156
H         32.19688       48.01993       82.48994
H         30.38832       49.15097       83.73860
H         31.27211       50.33212       82.71363
N         35.04290       47.33149       82.06547
C         36.00650       46.23558       82.02315
C         37.46294       46.66814       81.98184
O         38.31521       45.79380       82.07763
C         35.71710       45.30962       80.81494
C         34.29757       44.70797       80.79064
C         33.99182       43.98627       82.07723
O         33.97212       42.64928       82.15903
O         33.73585       44.62760       83.08074
H         34.34825       47.37296       81.32311
H         35.89455       45.65131       82.96020
H         36.43640       44.46080       80.83555
H         35.88179       45.87119       79.86834
H         34.24320       44.03042       79.92089
H         33.50943       45.46871       80.60991
N         37.84702       47.96753       81.85576
C         39.24404       48.34134       81.86658
H         39.77732       47.84226       81.02968
H         39.34390       49.44058       81.75534
H         39.70651       48.03717       82.83092
H         37.14906       48.71587       81.75049
Ca        32.07194       41.68532       81.61368
O         33.45182       42.20112       85.20570
H         34.31586       41.82496       84.90233
H         33.66233       43.13691       85.45135
O         30.65792       44.21526       83.40085
H         29.91571       44.72468       82.98916
H         31.15704       44.88738       83.92946
O         29.39622       39.71655       83.40271
H         28.81340       39.66436       82.60526
H         29.42234       38.79254       83.75847
O         30.16621       41.80162       85.36112
H         29.32318       42.14354       84.96962
H         30.57986       42.59216       85.78989

Ca 1.0



