%chk=apoCaM-CA-Ng.loop1.water6.frame571.chk
%nprocshared=20
%mem=10GB
%nosave
#b3lyp/svp scf=(tight,noincore,xqc) Test 
#IOP(5/87=12) Density=Current Pop=(MK,readradii) iop(6/33=2) iop(6/42=6)

apoCaM-CA-Ng.loop1.water6.frame571 

   0  1 
C         67.45283       35.48281       83.36735
C         66.65351       36.58487       83.99622
O         67.20438       37.36334       84.76104
H         68.51050       35.52035       83.70429
H         67.02093       34.50109       83.65537
H         67.42358       35.58281       82.26209
N         65.32701       36.69939       83.71480
C         64.45895       37.71908       84.29758
C         63.38747       37.06008       85.15894
O         63.37358       35.84092       85.26548
C         63.91367       38.65857       83.19207
C         63.09106       38.00020       82.11715
O         61.82670       38.40544       81.90424
O         63.58028       37.15724       81.38275
H         64.91009       36.01019       83.07116
H         65.03888       38.37027       84.98662
H         64.77728       39.15594       82.69869
H         63.30575       39.45963       83.66291
N         62.47669       37.81532       85.84139
C         61.49127       37.25291       86.76491
C         60.10904       37.38475       86.16466
O         59.20452       37.95160       86.76290
C         61.61320       37.95947       88.13411
C         62.95266       37.69471       88.84294
C         63.02164       36.27725       89.43321
C         64.34913       36.04214       90.16389
N         64.35321       34.73834       90.82749
H         62.47947       38.83753       85.70945
H         61.64051       36.16084       86.89634
H         60.78894       37.65571       88.81633
H         61.51431       39.05291       87.95463
H         63.03423       38.40886       89.69111
H         63.80111       37.88800       88.15067
H         62.91119       35.50811       88.64126
H         62.18632       36.16275       90.15939
H         64.50483       36.83471       90.92925
H         65.18473       36.09161       89.43058
H         65.27890       34.59149       91.29059
H         63.60474       34.70984       91.55833
H         64.19407       33.97409       90.13172
N         59.89380       36.84126       84.94135
C         58.61378       36.84550       84.25606
C         57.77865       35.66814       84.75906
O         58.31446       34.56789       84.76050
C         58.90047       36.70507       82.75513
C         57.66670       36.72215       81.92461
O         56.91774       37.68574       81.91105
O         57.40757       35.64824       81.17469
H         60.69812       36.40303       84.46429
H         58.13934       37.83635       84.37648
H         59.44849       35.75332       82.56734
H         59.54296       37.54430       82.42479
N         56.48316       35.74715       85.19038
C         55.62137       36.91158       85.18773
C         55.15177       37.19266       86.58598
O         55.98459       37.50221       87.42698
H         56.03781       34.88209       85.52455
H         54.75273       36.69061       84.53137
H         56.10258       37.81746       84.78684
N         53.82677       37.11033       86.90988
C         53.32055       37.42582       88.24128
C         52.66465       36.22384       88.88682
O         52.38742       35.23900       88.21944
C         52.32236       38.59141       88.15232
C         52.95995       39.80204       87.52991
O         54.02546       40.38169       88.11469
O         52.52120       40.25903       86.48632
H         53.14740       36.83577       86.18335
H         54.16215       37.72276       88.90461
H         51.95399       38.86194       89.16472
H         51.44909       38.27572       87.53709
N         52.45086       36.22452       90.23055
C         51.89686       35.10475       90.96992
C         52.66186       33.82829       90.71975
O         52.02932       32.81592       90.45728
H         52.74447       37.04971       90.77585
H         50.82646       34.95612       90.70552
H         51.95144       35.34185       92.05396
N         54.02710       33.81313       90.73616
C         54.80056       32.59897       90.48598
C         55.48259       32.64388       89.12782
O         55.51431       33.68067       88.48218
C         55.80497       32.33550       91.63838
C         56.86926       33.43757       91.78615
O         55.09300       32.20964       92.84212
H         54.52595       34.70124       90.88520
H         54.11240       31.72767       90.43647
H         56.32955       31.37640       91.41820
H         55.67275       31.70452       93.47064
H         57.45681       33.54758       90.85051
H         56.41252       34.41482       92.04438
H         57.57237       33.17232       92.60404
N         56.01441       31.49243       88.62382
C         56.67932       31.39742       87.32501
C         55.71521       31.77768       86.20973
O         56.10501       32.51024       85.31225
C         57.25237       29.96562       87.04815
C         58.03884       29.33523       88.23362
C         58.14635       29.99310       85.78831
C         59.14973       30.20895       88.81639
H         55.91700       30.64689       89.19686
H         57.54584       32.09665       87.32959
H         56.40730       29.27032       86.84447
H         58.47047       28.36461       87.90425
H         57.34481       29.08254       89.05965
H         59.01253       30.67425       85.92857
H         58.53109       28.97644       85.56150
H         57.58040       30.33797       84.89879
H         59.63770       29.66111       89.65039
H         59.91846       30.44787       88.05585
H         58.72871       31.14905       89.23037
N         54.42885       31.32726       86.22290
C         53.43484       31.65111       85.20443
C         52.80545       30.37670       84.67885
O         52.21741       29.63213       85.45266
C         52.37024       32.63398       85.75040
C         51.74515       32.22510       87.09254
O         52.97052       33.89401       85.89943
H         54.12586       30.74506       87.01975
H         53.90972       32.17625       84.34499
H         51.56381       32.69951       84.97891
H         52.28826       34.57235       85.65104
H         50.98021       32.97282       87.39007
H         51.24900       31.23756       87.03739
H         52.52036       32.20061       87.88696
N         52.91233       30.05071       83.36034
C         52.34846       28.83131       82.79574
C         52.93869       28.59455       81.41233
O         53.66068       27.61944       81.25713
C         50.78922       28.86041       82.82035
C         50.17473       27.57468       82.26481
O         50.28586       29.95222       82.09317
H         53.45910       30.67412       82.74453
H         52.68653       27.97885       83.42949
H         50.43801       28.92773       83.87603
H         50.17006       30.70585       82.72937
H         49.06676       27.62987       82.33539
H         50.44881       27.43356       81.19802
H         50.52119       26.69794       82.85135
N         52.69019       29.43687       80.36659
C         53.28608       29.26036       79.04766
C         53.89272       30.56129       78.57847
O         53.19439       31.56568       78.57605
C         52.23026       28.80208       78.03053
C         52.91832       28.43924       76.70042
C         51.93512       27.90637       75.66345
C         52.69405       27.43919       74.41317
N         51.77442       26.90711       73.41132
H         52.04432       30.22723       80.49881
H         54.06190       28.46348       79.07604
H         51.45686       29.58797       77.88107
H         51.73350       27.88965       78.42623
H         53.67712       27.65131       76.90659
H         53.43940       29.32497       76.27431
H         51.20980       28.70575       75.39633
H         51.38274       27.04275       76.09233
H         53.41776       26.64267       74.70043
H         53.26712       28.28786       73.97640
H         51.23241       26.10729       73.81202
H         51.11919       27.65786       73.09477
H         52.32537       26.56526       72.59111
N         55.16048       30.60099       78.08126
C         55.75192       31.82714       77.56254
C         55.95641       32.85881       78.69313
O         54.81299       33.66270       78.77972
C         57.03301       31.53825       76.74855
C         57.60579       32.81889       76.11739
C         58.70836       32.49562       75.15052
O         59.81491       31.85330       75.56960
O         58.60388       32.81302       73.97596
H         55.70233       29.72485       78.02782
H         55.05956       32.26563       76.80698
H         56.74233       30.84482       75.92765
H         57.81933       31.03657       77.34222
H         57.99849       33.49064       76.91106
H         56.79986       33.35715       75.57054
N         56.21941       32.24145       80.00891
C         57.57932       31.72051       80.13993
H         58.33292       32.51283       79.93898
H         57.72693       31.34718       81.17659
H         57.73357       30.84786       79.48087
H         56.11071       32.97476       80.74747
Ca        55.69235       35.44288       79.79437
O         52.92417       36.52162       78.40423
H         52.25365       37.21552       78.62556
H         52.61985       36.15054       77.53818
O         55.37576       39.03074       78.47123
H         56.13379       39.35498       77.92288
H         55.00631       39.84791       78.89116
O         55.44151       36.11241       76.52950
H         55.82129       36.42774       75.67131
H         54.79972       35.40390       76.27176
O         58.01180       37.08887       78.43924
H         58.07590       36.82230       77.48796
H         58.93159       36.98384       78.79021
O         53.81226       38.19284       81.11829
H         52.92390       38.57143       80.89959
H         54.28566       38.92580       81.58623
O         53.96152       35.16407       82.09867
H         54.71824       34.67455       82.50916
H         53.25889       35.17150       82.79514

Ca 1.0



