%chk=apoCaM-CA-Ng.loop3.water3.frame642.chk
%nprocshared=20
%mem=10GB
%nosave
#b3lyp/svp scf=(tight,noincore,xqc) Test 
#IOP(5/87=12) Density=Current Pop=(MK,readradii) iop(6/33=2) iop(6/42=6)

apoCaM-CA-Ng.loop3.water3.frame642 

   0  1 
C         69.15565       50.95930       -2.99400
C         69.39938       51.41098       -4.40383
O         68.60205       51.10706       -5.27988
H         68.21554       50.37205       -2.92130
H         70.00315       50.33583       -2.64278
H         69.06322       51.85071       -2.33608
N         70.47729       52.19288       -4.68394
C         70.71247       52.77109       -5.99995
C         71.06837       51.70803       -7.02624
O         71.99908       50.94223       -6.81840
C         71.78653       53.87637       -5.91757
C         71.80979       54.78686       -7.12365
O         72.63007       55.85291       -7.12854
O         71.07948       54.59565       -8.08296
H         71.10265       52.45277       -3.90482
H         69.77902       53.28540       -6.30355
H         72.78896       53.43345       -5.73382
H         71.54147       54.53392       -5.05955
N         70.35804       51.64237       -8.18390
C         70.59392       50.68165       -9.25952
C         72.01656       50.82515       -9.79432
O         72.72541       49.83400       -9.89380
C         69.57458       50.90265      -10.42048
C         68.09263       50.77864       -9.96838
C         67.03936       51.14562      -11.03635
C         66.58974       50.02466      -11.99107
N         67.63824       49.54064      -12.88236
H         69.62531       52.35175       -8.31047
H         70.44188       49.64598       -8.88035
H         69.79634       50.17238      -11.22090
H         69.72971       51.91908      -10.83934
H         67.92509       51.52421       -9.17037
H         67.87178       49.78332       -9.52768
H         67.35003       52.05641      -11.59140
H         66.11151       51.41208      -10.48168
H         65.75958       50.43399      -12.61102
H         66.17859       49.17593      -11.40062
H         68.06425       50.33593      -13.41041
H         68.35739       49.01474      -12.34186
H         67.20753       48.87376      -13.56373
N         72.48365       52.05220      -10.15851
C         73.77986       52.31253      -10.79022
C         74.70768       53.19775       -9.94926
O         75.79084       53.50117      -10.43243
C         73.53930       52.93593      -12.19405
C         72.48067       54.00980      -12.18008
O         72.56776       55.03619      -11.32178
O         71.47872       53.88439      -12.86395
H         71.85970       52.85642      -10.00079
H         74.35007       51.36991      -10.94548
H         73.18493       52.13441      -12.87777
H         74.49232       53.32648      -12.61199
N         74.40742       53.60876       -8.68255
C         75.33407       54.40253       -7.87436
C         75.59080       55.81201       -8.39930
O         76.47119       56.47115       -7.86536
H         73.53383       53.29121       -8.24936
H         76.30087       53.85565       -7.82361
H         74.95168       54.49230       -6.83491
N         74.86446       56.34379       -9.42307
C         75.10775       57.64524      -10.03444
C         73.89638       58.55108       -9.87037
O         72.80702       58.19521      -10.29481
C         75.43150       57.43609      -11.53254
C         75.66967       58.73343      -12.27944
N         76.86851       59.00164      -12.84625
O         74.76203       59.54463      -12.39064
H         74.09910       55.79114       -9.80778
H         75.99403       58.13639       -9.57505
H         74.59829       56.89644      -12.03326
H         76.33650       56.79326      -11.59948
H         77.65127       58.33646      -12.77583
H         77.01417       59.88451      -13.35909
N         74.05334       59.79085       -9.33098
C         73.00631       60.79565       -9.26951
C         71.88100       60.43063       -8.33426
O         72.14514       60.11544       -7.18248
H         74.99111       60.07641       -9.01054
H         72.63093       61.01544      -10.29366
H         73.45635       61.73283       -8.87714
N         70.58379       60.55763       -8.73833
C         69.45196       60.37314       -7.83199
C         69.26632       58.91808       -7.42082
O         70.01840       58.05588       -7.84958
C         68.15470       60.95767       -8.45444
C         68.22726       62.45892       -8.64304
C         68.44968       63.30524       -7.53897
C         68.04194       63.03247       -9.91192
C         68.49657       64.69159       -7.70366
C         68.08104       64.42276      -10.07258
C         68.30997       65.25598       -8.97196
O         68.34375       66.59325       -9.14295
H         70.40035       60.89316       -9.69713
H         69.65318       60.93886       -6.89793
H         67.28907       60.78696       -7.78468
H         67.93499       60.44095       -9.41245
H         68.58419       62.89816       -6.54541
H         67.85657       62.40690      -10.77563
H         68.67226       65.32545       -6.84302
H         67.92908       64.85393      -11.05388
H         68.49588       67.20254       -8.40599
N         68.26970       58.60512       -6.53915
C         67.99092       57.29736       -5.95681
C         67.64161       56.23656       -6.99333
O         68.48378       55.86904       -7.79970
C         69.14621       56.81373       -5.03078
C         68.82300       55.45782       -4.33646
C         69.50812       57.87960       -3.98219
C         67.59485       55.44255       -3.42234
H         67.66677       59.36871       -6.20131
H         67.10784       57.44178       -5.29786
H         70.05317       56.65126       -5.65239
H         69.70111       55.14266       -3.73374
H         68.65306       54.68846       -5.10889
H         69.84233       58.81629       -4.47505
H         68.63905       58.11998       -3.33600
H         70.34438       57.51938       -3.34576
H         67.70939       56.15521       -2.58211
H         66.66877       55.67385       -3.98441
H         67.47695       54.42308       -2.99711
N         66.42727       55.62183       -6.93670
C         66.08748       54.42167       -7.69076
C         64.85663       54.62007       -8.55612
O         64.91653       54.31406       -9.73877
C         65.87936       53.26451       -6.69621
O         64.84769       53.55529       -5.78971
H         65.74197       55.95840       -6.24409
H         66.92718       54.10910       -8.35264
H         66.83816       53.11781       -6.14594
H         65.63668       52.32876       -7.24483
H         65.02628       53.02602       -4.96959
N         63.69405       55.10093       -8.02820
C         62.44395       55.19248       -8.77967
C         62.56017       56.07419      -10.01504
O         63.49265       56.86350      -10.08238
C         61.36563       55.78427       -7.86171
H         63.68716       55.37983       -7.03636
H         62.16522       54.16389       -9.07837
H         60.40579       55.90065       -8.38019
H         61.21722       55.13791       -6.97151
H         61.67269       56.79731       -7.52042
N         61.64362       56.05880      -11.03348
C         60.56370       55.08038      -11.21166
C         59.53464       55.61530      -12.20307
O         59.94415       56.03496      -13.27729
C         61.13060       53.77038      -11.77562
H         61.78778       56.74951      -11.78731
H         60.08347       54.83907      -10.25428
H         61.61224       53.94214      -12.76177
H         61.88244       53.32151      -11.09931
H         60.30763       53.03340      -11.90607
N         58.18378       55.61541      -11.98961
C         57.48348       55.04414      -10.84099
C         57.79964       55.79022       -9.56241
O         58.13516       55.14493       -8.57925
C         55.96222       55.02653      -11.11936
C         55.17528       54.23233      -10.06494
C         53.73484       54.09504      -10.47163
O         52.96677       55.18920      -10.63250
O         53.25514       52.98859      -10.66430
H         57.60206       55.99544      -12.75442
H         57.78676       53.97724      -10.74000
H         55.80975       54.51373      -12.09574
H         55.56468       56.06227      -11.20405
H         55.23252       54.73376       -9.07588
H         55.61753       53.21524       -9.97119
N         57.74015       57.15070       -9.51336
C         58.09994       57.92284       -8.33953
H         58.96371       58.57726       -8.58526
H         57.24362       58.55744       -8.03341
H         58.39001       57.28253       -7.47967
H         57.46504       57.67254      -10.35868
Ca        70.74366       56.21744      -10.70728
O         68.43873       54.55440      -11.61025
H         68.11375       55.04511      -12.40575
H         69.10595       53.92080      -11.97239
O         68.25640       57.79580      -10.38986
H         67.27069       57.87065      -10.43437
H         68.59178       58.59192      -10.87365
O         71.25598       57.90708      -13.04093
H         70.88849       57.01790      -13.27650
H         70.50066       58.38082      -12.60980

Ca 1.0



