%chk=apoCaM-CA-Ng.loop3.water6.frame377.chk
%nprocshared=20
%mem=10GB
%nosave
#b3lyp/svp scf=(tight,noincore,xqc) Test 
#IOP(5/87=12) Density=Current Pop=(MK,readradii) iop(6/33=2) iop(6/42=6)

apoCaM-CA-Ng.loop3.water6.frame377 

   0  1 
C         51.99011      115.20501        8.98983
C         53.43197      115.00646        8.63045
O         54.26423      114.91836        9.51907
H         51.38529      114.36620        8.58653
H         51.85799      115.24563       10.09199
H         51.62820      116.15949        8.55257
N         53.80132      114.93767        7.32216
C         55.17553      114.77195        6.86410
C         56.01652      115.96229        7.30997
O         57.03586      115.79655        7.96668
C         55.72920      113.39002        7.29836
C         57.06341      113.03324        6.69177
O         57.62166      111.84440        6.98778
O         57.63989      113.79057        5.92634
H         53.06723      115.02376        6.60189
H         55.15601      114.77883        5.75074
H         55.00719      112.60926        6.97401
H         55.82000      113.33851        8.40309
N         55.61765      117.21794        6.95887
C         56.37214      118.43690        7.25802
C         56.51690      118.74949        8.74830
O         57.21257      119.70340        9.06950
C         55.73542      119.63023        6.50910
C         54.35954      120.04593        7.06712
C         53.66927      121.02977        6.11084
C         52.31830      121.54126        6.63693
N         52.47980      122.46182        7.76417
H         54.76076      117.29365        6.38935
H         57.39237      118.29483        6.83717
H         55.63947      119.33355        5.44093
H         56.41017      120.51358        6.54993
H         54.51243      120.49497        8.07029
H         53.69444      119.16326        7.17915
H         53.48173      120.48499        5.15887
H         54.32680      121.89760        5.88873
H         51.66652      120.68619        6.92489
H         51.81380      122.08985        5.81114
H         51.53920      122.81845        8.04874
H         52.91472      121.98456        8.58413
H         53.06892      123.27654        7.47390
N         55.89950      118.00627        9.71234
C         56.04337      118.25664       11.14786
C         57.50203      118.14641       11.57885
O         58.32674      117.64680       10.82441
C         55.16787      117.22342       11.90112
C         55.22821      117.24504       13.40283
O         54.80703      118.31149       14.10411
O         55.62157      116.25825       14.00392
H         55.29012      117.23413        9.41889
H         55.68786      119.28903       11.35927
H         55.49660      116.22240       11.56173
H         54.10709      117.35041       11.59559
N         57.89408      118.63509       12.78923
C         59.25641      118.54023       13.28006
C         59.60838      117.10287       13.54744
O         60.56004      116.59255       12.97343
H         57.20367      119.11253       13.38610
H         59.33896      119.09123       14.24207
H         59.95707      119.00794       12.55398
N         58.85643      116.38582       14.42846
C         59.11830      114.98844       14.76167
C         58.87700      114.03833       13.58201
O         59.13142      112.85236       13.73696
C         58.21986      114.54836       15.94318
C         58.33634      115.45405       17.14721
N         59.51530      115.61975       17.78886
O         57.34516      116.04732       17.54681
H         58.08440      116.87728       14.90511
H         60.18013      114.90563       15.08237
H         58.47912      113.51293       16.25181
H         57.16363      114.55625       15.60544
H         60.36372      115.12950       17.47328
H         59.57827      116.24502       18.60643
N         58.37144      114.46914       12.38712
C         58.07372      113.59129       11.26572
C         56.95118      112.64926       11.61571
O         57.10450      111.44322       11.48948
H         58.15224      115.46157       12.24959
H         58.98727      113.04667       10.94203
H         57.72378      114.21417       10.41335
N         55.79155      113.16281       12.10592
C         54.65398      112.37874       12.55744
C         54.61832      112.39959       14.06908
O         55.27525      113.22621       14.68542
C         53.36939      112.90458       11.86625
C         52.08770      112.75645       12.64785
C         51.10600      111.81947       12.29673
C         51.85273      113.62766       13.72806
C         49.91288      111.74851       13.02826
C         50.66090      113.56439       14.44574
C         49.68491      112.62244       14.09961
O         48.52571      112.55438       14.78428
H         55.74036      114.17881       12.24822
H         54.79426      111.30548       12.29721
H         53.30752      112.44249       10.85651
H         53.45423      113.99855       11.69768
H         51.26377      111.14522       11.46485
H         52.59109      114.37252       14.00085
H         49.16020      111.01963       12.75770
H         50.49735      114.25214       15.26620
H         48.33102      113.15102       15.52183
N         53.97355      111.39610       14.73132
C         54.09500      111.19091       16.17114
C         55.57670      111.07808       16.48673
O         56.08565      111.86955       17.26684
C         53.31638      109.91005       16.61907
C         51.79008      109.99172       16.33001
C         53.56483      109.57535       18.10264
C         51.04504      111.10028       17.07944
H         53.46886      110.69599       14.16688
H         53.68421      112.06748       16.71381
H         53.70280      109.04632       16.03291
H         51.32563      109.01950       16.60550
H         51.61221      110.13249       15.24425
H         54.63988      109.37348       18.28247
H         53.25312      110.40750       18.76584
H         53.01080      108.65477       18.38538
H         51.42890      112.10119       16.80052
H         49.96863      111.05967       16.81117
H         51.12373      110.96718       18.17700
N         56.33970      110.15589       15.83766
C         57.78194      110.06016       16.00155
C         58.14394      109.68328       17.41694
O         58.94146      110.38790       18.02064
C         58.37456      109.03305       15.02218
O         58.08921      109.39358       13.69674
H         55.87807      109.53001       15.15997
H         58.24546      111.04137       15.75120
H         57.95287      108.02384       15.21176
H         59.47840      108.95804       15.16016
H         58.69871      110.14319       13.46703
N         57.59277      108.58270       18.01453
C         57.97229      108.10597       19.34160
C         57.77334      109.14568       20.44304
O         58.29991      108.94142       21.52826
C         59.43508      107.63133       19.30003
H         56.89020      108.03567       17.49366
H         57.36620      107.20926       19.59890
H         60.13423      108.46591       19.08850
H         59.72148      107.17442       20.27106
H         59.55557      106.85770       18.51157
N         57.03329      110.27843       20.25103
C         56.99120      111.37010       21.21363
C         55.61725      111.53011       21.82342
O         54.65283      111.73737       21.10032
C         57.40607      112.66917       20.51584
H         56.50527      110.40036       19.37716
H         57.72364      111.19759       22.03123
H         57.41107      113.51024       21.24165
H         58.42559      112.56291       20.08857
H         56.70173      112.91726       19.69265
N         55.48035      111.49227       23.18247
C         54.24207      111.75593       23.90404
C         53.19157      110.71522       23.57094
O         52.11298      111.05892       23.10536
C         53.76176      113.20947       23.66617
C         54.83622      114.23633       24.05959
C         54.34944      115.63791       23.83099
O         53.26800      116.09503       24.49075
O         54.93705      116.37315       23.05337
H         56.31587      111.30824       23.75850
H         54.44860      111.66175       24.99448
H         52.85066      113.38819       24.27941
H         53.49205      113.35950       22.59937
H         55.75335      114.06803       23.45327
H         55.09882      114.11808       25.13289
N         53.45306      109.40044       23.81248
C         52.50595      108.33445       23.55619
H         51.54455      108.70960       23.14678
H         52.94400      107.62013       22.82881
H         52.29444      107.79796       24.50505
H         54.36906      109.13651       24.20649
Ca        54.82195      118.09237       16.35794
O         53.00545      120.53053       16.37984
H         53.72690      120.82428       16.99133
H         53.45250      120.42448       15.50261
O         52.73390      117.02329       18.79818
H         53.07771      116.26428       19.33321
H         51.82196      116.74522       18.53105
O         55.74483      118.24334       19.39164
H         55.85785      117.35882       19.82229
H         56.65767      118.62613       19.36555
O         57.08518      120.10675       15.99410
H         57.45439      119.28415       16.40395
H         56.41505      120.43121       16.64698
O         54.36827      114.90255       17.04264
H         53.63067      114.63938       16.43689
H         54.33971      114.23536       17.77357
O         52.07482      116.81620       15.45832
H         52.02578      117.39647       14.65773
H         51.22081      116.97440       15.93344

Ca 1.0



