%chk=apoCaM-CA-Ng.loop4.water5.frame905.chk
%nprocshared=20
%mem=10GB
%nosave
#b3lyp/svp scf=(tight,noincore,xqc) Test 
#IOP(5/87=12) Density=Current Pop=(MK,readradii) iop(6/33=2) iop(6/42=6)

apoCaM-CA-Ng.loop4.water5.frame905 

   -3  1 
C         76.33906      -15.04156       57.83711
C         75.93152      -15.93450       58.96962
O         76.74745      -16.71911       59.43169
H         77.39452      -15.23046       57.54678
H         75.68559      -15.22233       56.95947
H         76.24399      -13.98087       58.15243
N         74.67320      -15.84151       59.49040
C         74.19520      -16.61958       60.62981
C         75.09655      -16.33404       61.82188
O         75.69133      -17.24151       62.37843
C         74.09363      -18.11717       60.24642
C         73.43445      -18.97757       61.29392
O         72.98522      -18.45421       62.45185
O         73.29040      -20.17096       61.08289
H         74.02642      -15.14830       59.08328
H         73.16764      -16.26805       60.87422
H         75.10205      -18.52820       60.03054
H         73.48313      -18.19900       59.32039
N         75.30405      -15.04181       62.19170
C         76.30737      -14.62212       63.16911
C         75.96782      -15.04707       64.59827
O         74.80682      -14.95723       64.97088
C         76.54775      -13.07665       63.10601
C         75.28597      -12.25211       63.49450
C         77.09236      -12.69009       61.71384
C         75.51374      -10.74073       63.50293
H         74.79441      -14.32312       61.65962
H         77.26684      -15.08801       62.86486
H         77.34891      -12.83338       63.83891
H         74.97546      -12.52718       64.52292
H         74.43995      -12.46666       62.81007
H         77.39965      -11.62616       61.68490
H         77.99846      -13.28869       61.47954
H         76.34249      -12.86029       60.91418
H         76.34385      -10.47830       64.19178
H         75.73722      -10.36229       62.48513
H         74.58836      -10.23399       63.84988
N         76.92435      -15.40995       65.51316
C         78.34493      -15.57037       65.20123
C         78.61253      -16.88330       64.47341
O         79.71760      -17.06563       63.98156
C         79.22839      -15.41540       66.45871
C         78.94940      -16.42411       67.53840
O         78.53808      -16.00829       68.75173
O         79.11628      -17.61540       67.33446
H         76.61690      -15.56918       66.48536
H         78.65591      -14.73014       64.54486
H         79.06025      -14.39646       66.87239
H         80.30021      -15.48475       66.16989
N         77.64098      -17.83347       64.34354
C         77.79215      -19.03350       63.54411
C         78.80581      -20.01541       64.06673
O         79.43162      -19.79782       65.09497
H         76.71641      -17.68745       64.77221
H         78.05660      -18.74512       62.50407
H         76.81501      -19.56504       63.51499
N         78.98117      -21.16974       63.36932
C         79.87632      -22.24630       63.77403
C         81.35366      -21.86316       63.82019
O         82.11923      -22.67759       64.31680
C         79.63492      -23.50615       62.89313
C         79.60518      -23.25374       61.39928
O         78.58788      -23.49403       60.76832
O         80.66839      -22.76342       60.74497
H         78.39426      -21.30010       62.53123
H         79.61022      -22.53351       64.81606
H         78.63588      -23.91099       63.16718
H         80.38314      -24.29258       63.13195
N         81.85007      -20.67465       63.35770
C         83.26958      -20.33300       63.45244
C         84.18447      -21.22760       62.62203
O         85.39170      -21.05236       62.68983
H         81.21693      -19.97588       62.94450
H         83.57493      -20.38335       64.52009
H         83.41910      -19.28746       63.10478
N         83.67670      -22.18547       61.79809
C         84.43011      -23.08442       60.93729
C         85.19845      -22.33316       59.86717
O         86.25467      -22.78768       59.44949
C         85.27307      -24.09942       61.74005
C         84.38508      -24.89193       62.71826
C         85.10640      -25.99481       63.44944
N         84.42807      -26.75801       64.33762
O         86.29181      -26.21301       63.24531
H         82.66698      -22.28554       61.73629
H         83.67998      -23.68285       60.37161
H         86.08212      -23.58332       62.30081
H         85.73712      -24.81239       61.02337
H         83.54418      -25.35328       62.15624
H         83.96930      -24.19599       63.47421
H         83.42784      -26.58623       64.52030
H         84.89967      -27.52228       64.84303
N         84.68968      -21.17695       59.35104
C         85.30489      -20.44077       58.25284
C         84.30975      -20.11984       57.13872
O         84.75307      -19.55971       56.14432
C         85.93741      -19.11533       58.77337
C         84.90713      -18.18144       59.43627
C         87.08828      -19.39664       59.74697
H         83.84096      -20.78464       59.78028
H         86.11799      -21.04716       57.79534
H         86.37742      -18.57564       57.90487
H         84.46608      -18.64452       60.34384
H         85.39388      -17.23031       59.73844
H         84.09053      -17.93104       58.72930
H         87.86080      -20.02344       59.25297
H         87.56588      -18.44291       60.05783
H         86.72515      -19.92148       60.65380
N         82.96115      -20.34343       57.25006
C         82.00239      -19.80206       56.29261
C         81.07115      -20.87883       55.74703
O         81.11039      -22.01412       56.20316
C         81.28179      -18.63418       57.00551
C         80.40337      -17.78083       56.13096
N         79.12043      -17.53653       56.47797
O         80.86666      -17.26672       55.12353
H         82.56923      -20.79382       58.08754
H         82.54359      -19.37843       55.41910
H         82.06905      -17.95234       57.39266
H         80.71546      -19.02284       57.88040
H         78.73133      -17.92462       57.34851
H         78.52333      -16.93515       55.89172
N         80.26769      -20.59028       54.68446
C         79.44157      -21.57656       53.98091
C         79.09192      -21.08438       52.57806
O         79.42163      -19.95374       52.24193
C         78.21597      -21.98196       54.83770
C         77.28054      -20.83568       55.15849
C         76.39630      -20.32978       54.18996
C         77.26541      -20.27871       56.44912
C         75.52406      -19.28191       54.50799
C         76.39810      -19.22612       56.75848
C         75.52760      -18.72189       55.79094
O         74.69908      -17.70509       56.10479
H         80.34273      -19.63951       54.30345
H         80.06683      -22.48131       53.81075
H         78.60983      -22.40208       55.78713
H         77.63660      -22.80219       54.36098
H         76.36713      -20.75666       53.19664
H         77.93456      -20.64879       57.21550
H         74.83981      -18.90429       53.76484
H         76.40658      -18.79954       57.75196
H         74.08523      -17.32220       55.46152
N         78.48731      -21.90434       51.66936
C         78.26837      -21.48882       50.28639
C         76.78369      -21.49054       49.96899
O         76.24755      -22.55755       49.70304
C         79.05136      -22.39642       49.31357
C         80.56334      -22.36112       49.58575
C         81.30481      -23.22747       48.60876
O         81.05301      -24.54941       48.54909
O         82.14723      -22.74036       47.87183
H         78.21459      -22.85927       51.94928
H         78.66663      -20.47401       50.12053
H         78.86702      -22.04869       48.27234
H         78.68986      -23.44477       49.40544
H         80.77600      -22.73053       50.61187
H         80.92757      -21.31308       49.50568
N         76.00390      -20.36887       50.04081
C         76.46757      -19.05985       50.50510
C         77.39397      -18.36293       49.52136
O         77.59224      -18.84960       48.41596
C         75.26404      -18.15844       50.86375
C         74.41783      -17.70428       49.66223
C         73.22609      -16.89228       50.09615
O         72.45947      -16.45300       49.25497
O         72.98504      -16.64898       51.40062
H         74.99572      -20.49825       49.86482
H         77.01568      -19.22365       51.45592
H         75.62801      -17.25422       51.39886
H         74.61475      -18.72794       51.55977
H         74.04706      -18.58351       49.09705
H         75.04150      -17.08268       48.98471
N         78.00334      -17.19779       49.87740
C         78.89047      -16.48196       48.98776
H         79.75592      -17.12255       48.71615
H         78.34419      -16.18055       48.06917
H         79.27035      -15.56658       49.49069
H         77.83883      -16.80377       50.81593
Ca        70.59332      -14.85790       51.64544
O         70.19199      -17.02519       53.89886
H         69.45970      -17.61120       53.58137
H         70.95495      -17.63852       54.04774
O         69.75034      -14.80158       48.53507
H         68.92794      -14.28432       48.72625
H         69.42499      -15.70507       48.29353
O         72.81452      -13.36284       50.16935
H         73.00576      -12.57669       50.74002
H         72.37628      -12.98669       49.36510
O         67.68473      -15.42140       51.87504
H         67.35548      -15.76411       52.74356
H         66.86616      -15.24806       51.34622
O         69.61106      -17.88824       50.44763
H         68.79047      -18.10018       50.95970
H         69.71080      -18.64353       49.81511

Ca 1.0



