%chk=apoCaM-CA-Ng.loop2.water4.frame452.chk
%nprocshared=20
%mem=10GB
%nosave
#b3lyp/svp scf=(tight,noincore,xqc) Test 
#IOP(5/87=12) Density=Current Pop=(MK,readradii) iop(6/33=2) iop(6/42=6)

apoCaM-CA-Ng.loop2.water4.frame452 

   -2  1 
C         64.53739       90.39944       72.38847
C         64.35354       91.74339       71.73815
O         65.25550       92.18778       71.04266
H         65.42627       90.41493       73.05202
H         63.64895       90.10783       72.98768
H         64.68933       89.62844       71.60188
N         63.18388       92.42965       71.87670
C         62.92132       93.68260       71.17545
C         63.68130       94.83514       71.80598
O         63.43524       95.13437       72.96513
C         61.41099       93.99726       71.19860
C         61.05518       95.24024       70.42108
O         59.91005       95.89056       70.69678
O         61.78238       95.65801       69.53247
H         62.42792       92.00054       72.43377
H         63.20935       93.55044       70.11006
H         61.07338       94.11892       72.25138
H         60.84134       93.14681       70.76526
N         64.56154       95.57989       71.07708
C         65.26846       96.72271       71.64694
C         66.45916       96.26080       72.44937
O         66.82421       95.09549       72.36433
C         65.74165       97.66449       70.53847
H         64.69335       95.35470       70.08023
H         64.56759       97.29249       72.29887
H         64.86816       98.00297       69.94267
H         66.24115       98.55933       70.96732
H         66.45561       97.14072       69.86710
N         67.12760       97.13326       73.25227
C         68.25113       96.70919       74.06450
C         69.53964       96.80433       73.28166
O         69.97368       97.90202       72.95969
C         68.30680       97.49655       75.38782
C         67.13063       97.13397       76.27128
O         66.96918       95.82506       76.59970
O         66.38937       97.99713       76.71645
H         66.78857       98.10460       73.33637
H         68.12088       95.64699       74.35715
H         68.37873       98.59248       75.20028
H         69.22640       97.19831       75.93285
N         70.23885       95.66485       73.00472
C         71.59602       95.67240       72.49625
C         72.57547       95.46981       73.63991
O         73.77127       95.54985       73.39900
H         69.85867       94.75530       73.31053
H         71.82972       96.64653       72.01680
H         71.71598       94.88307       71.72095
N         72.14211       95.22328       74.91742
C         73.01879       95.11267       76.07498
C         74.07248       94.05090       75.89097
O         73.77963       92.97392       75.39142
C         72.22951       94.77361       77.35571
C         71.22334       95.83258       77.72130
N         69.92049       95.51293       77.88295
O         71.59037       96.98491       77.89609
H         71.13573       95.12443       75.10258
H         73.52071       96.09327       76.23533
H         72.94447       94.69049       78.20241
H         71.72781       93.78774       77.23175
H         69.59737       94.54534       77.75818
H         69.23524       96.23357       78.14762
N         75.32939       94.29038       76.35050
C         76.42405       93.35276       76.24022
C         76.15125       92.04322       76.93701
O         75.90603       92.03469       78.13568
H         75.52855       95.19444       76.80554
H         77.32370       93.80027       76.71443
H         76.65184       93.18812       75.16693
N         76.22131       90.88266       76.22727
C         76.18484       89.55673       76.83726
C         74.80491       88.92433       76.76230
O         74.61083       87.88621       77.37880
C         77.27627       88.65886       76.18763
C         76.92363       88.22030       74.74918
O         78.52205       89.31414       76.22370
H         76.40792       90.95268       75.21766
H         76.43525       89.66201       77.91720
H         77.38706       87.71925       76.77080
H         78.55211       89.97221       75.47994
H         76.60538       89.06940       74.10980
H         77.79381       87.73185       74.26618
H         76.10392       87.47731       74.78416
N         73.80256       89.48766       76.02626
C         72.45027       88.95540       75.94505
C         71.49684       90.01066       76.44908
O         71.50886       91.12971       75.95367
C         72.11048       88.51086       74.49393
C         73.03887       87.37193       74.00123
C         70.63261       88.08866       74.37350
C         72.97539       86.07110       74.81335
H         73.99205       90.34285       75.48587
H         72.33362       88.06476       76.59515
H         72.26356       89.36719       73.79920
H         74.07967       87.74104       73.99421
H         72.77681       87.13098       72.94860
H         69.97344       88.97477       74.48398
H         70.42783       87.64767       73.37532
H         70.36022       87.35150       75.15809
H         71.94960       85.64950       74.80954
H         73.65905       85.32319       74.36103
H         73.30238       86.22186       75.86000
N         70.60322       89.69120       77.42207
C         69.63531       90.63322       77.95338
C         69.44792       90.38851       79.44992
O         68.47083       90.86421       80.01102
C         68.33680       90.46678       77.12264
C         67.49194       91.71213       77.07410
O         66.27883       91.64821       77.14448
O         68.06182       92.88859       76.76059
H         70.53182       88.70393       77.71536
H         70.00299       91.67135       77.79725
H         67.76767       89.55351       77.41023
H         68.63988       90.33830       76.06389
N         70.34920       89.63281       80.16085
C         70.12516       89.20771       81.53232
C         68.96257       88.22837       81.56144
O         69.02024       87.23932       80.84154
C         71.37440       88.50297       82.13857
C         71.04302       88.03320       83.54318
C         71.27221       88.86520       84.65088
C         70.39076       86.79912       83.73791
C         70.83436       88.47777       85.92323
C         69.95098       86.42028       85.00642
C         70.16574       87.26205       86.09813
H         71.22263       89.31680       79.71537
H         69.94883       90.10176       82.16428
H         72.21667       89.22930       82.16483
H         71.70707       87.63815       81.52171
H         71.75717       89.82462       84.52513
H         70.19225       86.14210       82.90080
H         70.99265       89.13015       86.77136
H         69.42601       85.48231       85.13667
H         69.80666       86.97422       87.07748
N         67.92228       88.36786       82.43581
C         66.91359       87.34148       82.63885
C         65.88568       87.29271       81.53406
O         65.04022       86.40870       81.57403
C         66.28441       87.73661       83.98039
C         66.38010       89.25059       83.94414
C         67.77159       89.46438       83.36784
H         67.37886       86.33493       82.73840
H         65.27052       87.32504       84.17440
H         66.96382       87.39696       84.79421
H         65.63887       89.61734       83.19831
H         66.20712       89.77194       84.90894
H         67.81354       90.46155       82.87940
H         68.55876       89.37631       84.14552
N         65.85543       88.22242       80.54151
C         64.79653       88.23704       79.54789
C         65.06467       87.25079       78.41831
O         64.20716       87.10680       77.55713
C         64.61104       89.65050       78.98255
C         64.41798       90.71412       80.08406
C         63.94445       92.00918       79.49726
O         62.82893       92.06549       79.00610
O         64.71541       93.11610       79.60747
H         66.53590       88.99334       80.55057
H         63.83588       87.98108       80.04906
H         63.72667       89.63492       78.30931
H         65.50362       89.90422       78.39189
H         65.38257       90.88369       80.61169
H         63.66972       90.37503       80.83032
N         66.23571       86.55462       78.33222
C         66.51333       85.64280       77.24458
H         67.52704       85.20539       77.37065
H         65.76810       84.81988       77.23538
H         66.48313       86.18722       76.27670
H         66.97200       86.67734       79.04063
Ca        65.86057       94.43690       78.08807
O         63.21266       93.46346       76.44554
H         62.34954       93.07527       76.15961
H         63.07471       93.72028       77.38860
O         67.03776       95.74092       80.03922
H         67.55677       96.55266       79.81907
H         67.71159       95.05152       80.26530
O         65.59582       94.01961       75.15475
H         66.38574       94.16608       74.58406
H         64.84943       94.40045       74.63933
O         64.04093       96.32871       78.49347
H         63.82849       96.94491       77.74976
H         63.52477       96.65636       79.26960

Ca 1.0



