%chk=apoCaM-CA-Ng.loop4.water3.frame339.chk
%nprocshared=20
%mem=10GB
%nosave
#b3lyp/svp scf=(tight,noincore,xqc) Test 
#IOP(5/87=12) Density=Current Pop=(MK,readradii) iop(6/33=2) iop(6/42=6)

apoCaM-CA-Ng.loop4.water3.frame339 

   -3  1 
C         73.39051       76.92770       57.53359
C         73.64347       75.45289       57.49497
O         74.74897       75.04285       57.80887
H         72.58149       77.14416       58.26184
H         74.30709       77.47147       57.85235
H         73.09320       77.28431       56.52666
N         72.64478       74.58823       57.14840
C         72.78754       73.13507       57.13537
C         73.16467       72.64227       58.52051
O         74.26623       72.16776       58.71426
C         73.64746       72.62263       55.94448
C         75.06919       73.10573       55.83351
O         75.98535       72.78482       56.76385
O         75.41204       73.76036       54.86171
H         71.71665       74.97865       56.92528
H         71.79016       72.68621       56.92411
H         73.11509       72.92933       55.01627
H         73.65822       71.51088       55.96286
N         72.24482       72.75933       59.52627
C         72.36773       72.39717       60.94437
C         72.56540       70.89250       61.16303
O         71.64761       70.25244       61.65741
C         73.40376       73.27170       61.71049
C         73.28513       73.10072       63.25466
C         73.28082       74.76100       61.33824
C         71.96724       73.58477       63.88077
H         71.33421       73.16767       59.26081
H         71.37445       72.64972       61.37223
H         74.42616       72.95640       61.40862
H         74.10709       73.67492       63.72979
H         73.41163       72.03546       63.53025
H         74.02259       75.35880       61.90680
H         73.49133       74.91173       60.26215
H         72.26421       75.15341       61.54315
H         71.09380       73.01779       63.50415
H         72.00646       73.43274       64.97960
H         71.80740       74.66683       63.69965
N         73.72005       70.25514       60.81194
C         73.91690       68.81652       60.91263
C         74.11135       68.35489       62.35127
O         73.39827       67.44530       62.74998
C         75.08813       68.36340       60.00304
C         75.29700       66.87440       60.04123
O         76.48147       66.37118       60.43904
O         74.40017       66.11606       59.70868
H         74.49643       70.79619       60.42629
H         73.02437       68.30817       60.47999
H         76.03815       68.85244       60.27102
H         74.86053       68.65785       58.95612
N         75.05719       68.85760       63.19941
C         75.86992       70.03642       62.93287
C         76.82735       70.30614       64.06371
O         76.38147       70.25612       65.20225
H         75.15000       68.39747       64.11933
H         75.19795       70.90778       62.85222
H         76.40840       69.94499       62.00044
N         78.13764       70.66278       63.90340
C         78.88894       70.94980       62.67734
C         78.29170       72.13784       61.85099
O         77.49827       71.67864       60.79270
C         79.21401       69.67707       61.85808
C         80.21839       69.91148       60.75642
O         80.55608       68.97851       60.04621
O         80.76739       71.12545       60.55194
H         78.66153       70.83216       64.77421
H         79.88198       71.31219       63.02669
H         78.30647       69.24128       61.40488
H         79.64499       68.91785       62.54532
N         77.51427       73.08912       62.67356
C         78.23710       73.71704       63.78992
C         77.42285       73.55944       65.04760
O         76.27572       73.13923       64.97884
H         77.05379       73.83032       62.10046
H         78.45441       74.78955       63.59131
H         79.21053       73.21904       63.96408
N         77.99189       73.78610       66.26097
C         77.29282       73.44068       67.49487
C         76.17779       74.42501       67.82541
O         75.46578       74.18586       68.79281
C         78.26002       73.38806       68.70552
C         79.54524       72.55772       68.50547
C         79.31345       71.14792       68.02738
N         78.58522       70.26891       68.75131
O         79.81431       70.78911       66.97293
H         78.97281       74.09681       66.28753
H         76.87036       72.41793       67.36838
H         77.69866       72.97590       69.57339
H         78.58068       74.42004       68.97059
H         80.09564       72.52717       69.46957
H         80.20656       73.07449       67.77900
H         78.16477       70.54332       69.64974
H         78.44842       69.30523       68.41038
N         76.03600       75.60042       67.14333
C         75.17131       76.68363       67.59340
C         76.01559       77.81802       68.17463
O         75.42644       78.75904       68.68421
C         74.18966       77.15746       66.48432
C         73.18020       76.05218       66.15011
C         74.89978       77.62807       65.20553
H         76.65973       75.80259       66.35003
H         74.54490       76.34811       68.45074
H         73.60447       78.01518       66.88584
H         72.44532       76.41689       65.40065
H         73.69636       75.15669       65.74758
H         72.61531       75.75996       67.06181
H         75.61206       78.44777       65.43328
H         75.44585       76.79350       64.71930
H         74.15254       78.01104       64.47731
N         77.38921       77.75725       68.21760
C         78.20510       78.70256       68.97419
C         79.20378       79.47335       68.12445
O         79.69444       80.47579       68.63187
C         78.94606       77.90348       70.06966
C         79.82656       78.74490       70.95879
N         79.30588       79.73581       71.71621
O         81.02729       78.52274       70.99777
H         77.88812       76.96834       67.78873
H         77.54686       79.45810       69.45451
H         79.57407       77.12899       69.57197
H         78.20099       77.37874       70.70530
H         78.29578       79.93487       71.70322
H         79.91821       80.30489       72.31911
N         79.56011       79.11974       66.85443
C         80.50974       79.92445       66.07999
C         80.53852       79.55805       64.60931
O         80.14515       78.45660       64.25362
C         81.94215       79.89523       66.69873
C         82.58488       78.51744       66.74072
C         82.96987       77.85801       65.55987
C         82.83580       77.88708       67.97337
C         83.57170       76.59812       65.60556
C         83.43707       76.62349       68.01930
C         83.80496       75.97402       66.83696
O         84.38500       74.75788       66.89545
H         79.12247       78.29197       66.42376
H         80.12192       80.96766       66.10422
H         81.88855       80.29515       67.73034
H         82.61541       80.58464       66.14607
H         82.82075       78.31731       64.59890
H         82.56530       78.37030       68.90128
H         83.85997       76.11124       64.68205
H         83.61985       76.14933       68.97557
H         84.65515       74.27773       66.09922
N         81.04133       80.45890       63.71073
C         81.15347       80.29767       62.26048
C         79.82077       80.40727       61.51377
O         79.75716       81.21172       60.59312
C         81.97217       79.05157       61.86817
C         82.33573       79.07108       60.37291
C         83.21792       77.91249       60.01298
O         82.77385       76.65070       60.16473
O         84.33894       78.10919       59.57067
H         81.40870       81.34547       64.09245
H         81.76240       81.16197       61.90472
H         81.42293       78.11935       62.11655
H         82.92591       79.07341       62.43859
H         82.87348       80.01892       60.14251
H         81.41778       79.02943       59.74972
N         78.72397       79.65225       61.82020
C         77.48263       79.68579       61.04876
C         76.82669       81.06178       60.99129
O         75.88357       81.20903       60.22429
C         76.42456       78.71935       61.63666
C         76.82242       77.24902       61.79388
C         77.15564       76.56856       60.50448
O         78.22917       76.75962       59.95578
O         76.30830       75.64170       60.02752
H         78.76971       79.00259       62.60027
H         77.73322       79.38198       60.00889
H         75.51328       78.74784       60.99842
H         76.14104       79.08524       62.64925
H         75.93969       76.73782       62.23234
H         77.65437       77.09978       62.51317
N         77.22296       82.10459       61.77413
C         76.56807       83.39250       61.70364
H         75.49126       83.28359       61.95589
H         77.03379       84.09615       62.42475
H         76.66671       83.81108       60.67930
H         77.98848       81.99448       62.45294
Ca        77.04246       73.57026       59.62702
O         77.17796       70.49130       58.09483
H         77.69792       69.65585       58.19987
H         76.34997       70.21379       57.62834
O         78.24774       75.06156       56.78925
H         79.08533       75.02536       56.26217
H         77.57924       75.44389       56.16701
O         79.86129       72.57882       57.80463
H         79.38048       72.30927       58.62642
H         80.54582       73.22178       58.11836

Ca 1.0



