%chk=apoCaM-CA-Ng.loop3.water4.frame309.chk
%nprocshared=20
%mem=10GB
%nosave
#b3lyp/svp scf=(tight,noincore,xqc) Test 
#IOP(5/87=12) Density=Current Pop=(MK,readradii) iop(6/33=2) iop(6/42=6)

apoCaM-CA-Ng.loop3.water4.frame309 

   0  1 
C         52.95702       46.00228       27.69833
C         53.71927       45.13510       28.65790
O         54.80859       44.70711       28.31927
H         51.98579       46.32802       28.12724
H         53.55643       46.90484       27.45583
H         52.75640       45.43621       26.76440
N         53.19952       44.83078       29.88001
C         53.84644       43.99057       30.88630
C         54.03620       42.56437       30.36312
O         55.10449       41.98696       30.51365
C         55.15319       44.66671       31.37687
C         55.76008       44.04877       32.60844
O         56.79033       44.51779       33.06514
O         55.17635       43.00690       33.23196
H         52.27215       45.21285       30.12215
H         53.14025       43.93734       31.74493
H         54.92968       45.72744       31.62418
H         55.90919       44.65664       30.56240
N         53.01954       41.96126       29.67881
C         53.06494       40.60668       29.10603
C         54.22581       40.34824       28.14207
O         54.40991       39.20907       27.73567
C         51.74720       40.34740       28.32379
C         51.63940       41.27470       27.08283
C         50.30363       41.14759       26.35124
C         50.26881       42.10839       25.14968
N         48.97767       42.05665       24.46765
H         52.15256       42.50787       29.56636
H         53.15983       39.89545       29.95542
H         50.88745       40.52625       29.00539
H         51.70101       39.28830       27.98779
H         52.45619       41.03822       26.36597
H         51.75318       42.33557       27.38938
H         49.48323       41.40957       27.05359
H         50.16203       40.10264       25.99971
H         51.07686       41.83995       24.43202
H         50.44910       43.15037       25.49897
H         48.99151       42.72224       23.66099
H         48.79717       41.09101       24.11006
H         48.21601       42.34131       25.12554
N         54.98305       41.36812       27.66423
C         56.01085       41.23058       26.64170
C         57.15162       40.32068       27.10297
O         57.43576       40.26467       28.29116
C         56.47996       42.65648       26.27889
C         57.44141       42.71906       25.13938
O         58.63557       42.14158       25.27344
O         57.15834       43.30782       24.10839
H         54.76556       42.31521       27.98404
H         55.53883       40.78947       25.73596
H         56.93340       43.11931       27.17860
H         55.58529       43.25680       26.00003
N         57.81804       39.54254       26.19682
C         58.88965       38.61159       26.53724
C         60.11260       39.31521       27.08465
O         60.50557       39.04038       28.20968
H         57.53349       39.59235       25.20754
H         59.19934       38.06373       25.62031
H         58.50795       37.86480       27.26691
N         60.76365       40.24892       26.33213
C         61.92382       41.01708       26.79238
C         61.61301       41.92615       27.99712
O         62.52287       42.60175       28.45646
C         62.51378       41.92244       25.66390
C         63.06347       41.23509       24.39027
N         63.92779       40.10848       24.71860
O         62.10563       40.84355       23.44289
H         60.41808       40.38849       25.38071
H         62.71504       40.29959       27.09918
H         63.39959       42.43199       26.09820
H         61.80863       42.73273       25.38889
H         64.74023       40.46212       25.27194
H         64.30586       39.71529       23.82678
N         60.37741       42.00300       28.56848
C         60.03340       42.89943       29.65813
C         59.89722       44.31922       29.16749
O         60.26647       45.24192       29.87813
H         59.60869       41.42711       28.22002
H         60.72780       42.79574       30.52129
H         59.02171       42.61328       30.02027
N         59.32844       44.55308       27.95161
C         59.07760       45.86832       27.38577
C         59.88052       46.01575       26.11714
O         59.95409       45.07042       25.34231
C         57.58203       46.00610       27.07008
C         57.23281       47.39693       26.61121
C         57.37447       48.47912       27.49437
C         56.76324       47.62749       25.30809
C         57.05626       49.77306       27.08136
C         56.44859       48.92544       24.89519
C         56.59473       50.00283       25.78209
O         56.29496       51.25961       25.39913
H         59.06371       43.74275       27.37631
H         59.36199       46.66377       28.10711
H         56.99379       45.78475       27.98199
H         57.31085       45.26767       26.28917
H         57.72729       48.31959       28.50570
H         56.64822       46.80731       24.60976
H         57.16909       50.59690       27.77431
H         56.09306       49.09249       23.88655
H         55.97333       51.46297       24.50967
N         60.50042       47.19026       25.82320
C         61.39547       47.30482       24.68241
C         62.61062       46.47163       25.02016
O         62.91734       45.54218       24.28979
C         61.72854       48.78546       24.35067
C         60.44324       49.63020       24.09425
C         62.67219       48.86915       23.13435
C         59.52546       49.11475       22.97595
H         60.36870       47.99684       26.45163
H         60.90482       46.88505       23.77713
H         62.25541       49.24569       25.21540
H         60.74362       50.67197       23.84966
H         59.83618       49.68055       25.02210
H         62.91091       49.92925       22.90467
H         63.62761       48.34642       23.33859
H         62.21887       48.40133       22.23574
H         58.65782       49.79878       22.86855
H         60.05137       49.07456       22.00111
H         59.12128       48.11103       23.22025
N         63.26987       46.67272       26.19759
C         64.28432       45.74393       26.67530
C         65.55365       45.77901       25.84685
O         66.34184       44.85320       25.97131
C         64.61629       46.00737       28.15527
O         63.45378       45.99453       28.94162
H         62.95277       47.43421       26.81808
H         63.84632       44.72368       26.60937
H         65.08876       47.00758       28.25699
H         65.33923       45.25460       28.54287
H         63.11056       45.06462       28.93497
N         65.83504       46.82147       25.00632
C         67.04665       46.92835       24.19874
C         67.11492       45.90250       23.07445
O         68.12607       45.88271       22.38460
C         68.30388       46.90387       25.08565
H         65.18048       47.61386       24.95550
H         67.04127       47.92336       23.70035
H         68.23196       47.69819       25.85904
H         68.45160       45.92773       25.58763
H         69.20780       47.10462       24.47227
N         66.06953       45.07333       22.77356
C         66.09295       44.13292       21.65928
C         65.07336       44.52134       20.60625
O         64.28831       45.43469       20.82521
C         65.80557       42.72158       22.17934
H         65.19932       45.12796       23.31777
H         67.08992       44.13690       21.16844
H         65.83478       41.97864       21.35507
H         66.56059       42.43398       22.94045
H         64.79922       42.68704       22.64857
N         65.06446       43.87522       19.40280
C         64.11524       44.13336       18.32174
C         64.17917       45.55619       17.76531
O         63.36642       45.86650       16.90457
C         62.67684       43.76507       18.75274
C         62.58808       42.30779       19.23623
C         61.16965       41.91080       19.51730
O         60.81230       41.50978       20.75028
O         60.33906       41.92367       18.62271
H         65.76629       43.13707       19.23927
H         64.36480       43.45691       17.47344
H         62.00954       43.88512       17.87037
H         62.31200       44.44737       19.54717
H         63.19444       42.18457       20.16017
H         62.98980       41.62486       18.45720
N         65.11776       46.46454       18.16718
C         65.17601       47.82419       17.66707
H         66.14772       47.98873       17.15692
H         64.35889       48.05277       16.95108
H         65.09420       48.52976       18.52053
H         65.84356       46.20204       18.84596
Ca        60.17412       42.01686       23.67355
O         59.18880       45.60246       21.86111
H         58.25181       45.51078       21.55643
H         59.59899       46.23533       21.21925
O         57.52795       42.88187       20.76270
H         58.15042       42.30913       20.24931
H         57.16863       43.51699       20.09337
O         58.74772       39.82988       22.28131
H         58.17785       39.30676       22.89784
H         59.66629       39.50617       22.46048
O         61.65374       44.02326       22.14657
H         62.44014       43.58906       22.56162
H         61.96698       44.92823       21.89892

Ca 1.0



