%chk=apoCaM-CA-Ng.loop2.water4.frame566.chk
%nprocshared=20
%mem=10GB
%nosave
#b3lyp/svp scf=(tight,noincore,xqc) Test 
#IOP(5/87=12) Density=Current Pop=(MK,readradii) iop(6/33=2) iop(6/42=6)

apoCaM-CA-Ng.loop2.water4.frame566 

   -2  1 
C         57.61809       17.19160       80.30404
C         56.28085       17.76007       79.93320
O         56.03313       18.92913       80.19285
H         58.25608       17.96269       80.78627
H         57.47895       16.34860       81.01311
H         58.13213       16.82061       79.39251
N         55.35794       16.97229       79.31504
C         54.03328       17.44764       78.93380
C         54.14437       18.59663       77.94860
O         54.68867       18.41128       76.86936
C         53.21436       16.29353       78.31724
C         51.83543       16.73234       77.90523
O         51.48574       16.63784       76.73948
O         50.98032       17.23078       78.81824
H         55.61148       15.99028       79.12200
H         53.50506       17.78644       79.85339
H         53.11487       15.47591       79.06364
H         53.75395       15.88891       77.43168
N         53.61730       19.81524       78.25610
C         53.65081       20.94490       77.33392
C         55.08286       21.39256       77.04744
O         55.93660       21.16654       77.89333
C         52.80590       22.09590       77.90281
H         53.14042       19.92772       79.16465
H         53.17717       20.61859       76.40415
H         52.74827       22.96072       77.21676
H         51.76569       21.73919       78.07161
H         53.22166       22.44395       78.87120
N         55.45186       22.06483       75.91100
C         54.54816       22.40029       74.81495
C         54.04284       21.13318       74.06048
O         54.96855       20.66594       73.12049
C         55.13524       23.52032       73.90860
C         56.51370       23.27861       73.33688
O         57.53173       24.08021       73.70513
O         56.71855       22.40445       72.51328
H         56.43108       22.38401       75.85174
H         53.65979       22.87971       75.26588
H         55.21588       24.42944       74.54517
H         54.42447       23.75846       73.08792
N         52.78089       21.44385       73.36143
C         52.13878       20.27215       72.73966
C         51.64027       19.24922       73.74653
O         51.83120       19.43561       74.93520
H         52.09279       21.88036       74.01915
H         52.84357       19.78261       72.03404
H         51.27093       20.64045       72.15253
N         50.98357       18.11664       73.37861
C         50.59540       17.76654       72.02143
C         51.29720       16.50271       71.55579
O         50.86179       15.94515       70.55673
C         49.05989       17.59011       71.98679
C         48.33783       18.87249       72.32096
N         48.46449       19.96366       71.52889
O         47.61995       18.92186       73.30837
H         50.71060       17.45731       74.12549
H         50.86124       18.54976       71.28363
H         48.76973       16.79312       72.70789
H         48.72708       17.27425       70.97456
H         49.05174       19.93794       70.68265
H         47.96531       20.83652       71.75523
N         52.44946       16.04753       72.14176
C         53.15713       14.87542       71.64252
C         54.39817       15.25772       70.86301
O         55.45096       14.67490       71.07682
H         52.87265       16.57364       72.91847
H         52.52066       14.32110       70.92213
H         53.37395       14.16790       72.47270
N         54.30646       16.20117       69.88254
C         55.35505       16.52226       68.91095
C         56.69286       16.88331       69.55659
O         56.74805       17.71519       70.45054
C         54.88493       17.62411       67.93200
C         53.69286       17.15895       67.07842
O         54.53637       18.78024       68.64150
H         53.40562       16.69067       69.79597
H         55.52421       15.61525       68.29061
H         55.73313       17.84150       67.24187
H         54.52615       19.52766       67.98845
H         53.41417       17.95542       66.35774
H         53.96651       16.24835       66.50466
H         52.79838       16.93258       67.69416
N         57.81762       16.23166       69.13349
C         59.12650       16.29379       69.78232
C         59.95082       17.48829       69.28834
O         60.18575       17.58869       68.09212
C         59.90922       14.95979       69.50682
C         61.25255       14.95045       70.28425
C         59.06118       13.72147       69.89043
C         62.14762       13.74507       69.99442
H         57.70372       15.55480       68.36519
H         58.97319       16.34015       70.88242
H         60.12415       14.89745       68.41593
H         61.04877       14.98789       71.37416
H         61.84237       15.84400       70.00300
H         58.10958       13.66950       69.32567
H         59.58766       12.78111       69.63596
H         58.82123       13.72783       70.97382
H         63.09125       13.84859       70.57099
H         61.67556       12.79293       70.30715
H         62.39354       13.70297       68.91260
N         60.48924       18.38269       70.17322
C         61.36767       19.49318       69.82090
C         62.78545       19.35152       70.40450
O         63.58025       20.24386       70.14347
C         60.76776       20.81604       70.35023
C         59.37022       21.07375       69.86340
O         59.12590       22.06666       69.19762
O         58.36964       20.23862       70.20088
H         60.26434       18.28858       71.15920
H         61.47355       19.56004       68.71576
H         61.42270       21.65957       70.03648
H         60.74566       20.79707       71.46201
N         63.19439       18.29247       71.17977
C         64.54781       18.19030       71.73984
C         64.48238       17.98683       73.26141
O         64.96246       16.96955       73.74003
C         65.30087       17.02387       71.04286
C         66.79294       16.89246       71.34353
C         67.52139       17.80641       72.14070
C         67.48420       15.80477       70.77710
C         68.89361       17.62982       72.35331
C         68.85506       15.63112       70.99818
C         69.55949       16.54412       71.78362
H         62.54462       17.52081       71.37204
H         65.12116       19.11524       71.52340
H         65.21196       17.15765       69.94311
H         64.78980       16.07129       71.30826
H         67.05323       18.66460       72.59851
H         66.95846       15.08549       70.16171
H         69.44373       18.33882       72.95951
H         69.37326       14.78887       70.55743
H         70.62156       16.41146       71.94965
N         63.91421       18.90819       74.10356
C         63.85872       18.75754       75.55725
C         63.22461       17.46490       76.05157
O         63.42358       17.12071       77.20936
C         62.98128       19.93583       75.99630
C         63.33764       20.99088       74.97551
C         63.37719       20.18095       73.68105
H         64.90559       18.83412       75.92756
H         61.91053       19.68069       75.81509
H         63.09701       20.23075       77.06102
H         62.66771       21.87605       74.94483
H         64.37245       21.33093       75.20979
H         62.36866       20.00990       73.25088
H         64.02915       20.71527       72.95731
N         62.39511       16.73551       75.25424
C         61.77444       15.48686       75.67526
C         62.86026       14.43029       75.71195
O         63.11322       13.85970       76.76296
C         60.59076       15.00644       74.77086
C         59.37389       15.98406       74.67049
C         59.57476       17.08679       73.66381
O         58.70278       18.10757       73.46335
O         60.54372       17.02744       72.93759
H         62.22696       17.09190       74.31932
H         61.32971       15.63141       76.68572
H         60.21194       14.08019       75.25604
H         60.93038       14.70681       73.75591
H         59.15275       16.39025       75.67777
H         58.48495       15.42006       74.31488
N         63.57439       14.15267       74.58278
C         64.65986       13.19704       74.56012
H         65.45154       13.50532       75.27598
H         64.28609       12.18661       74.82583
H         65.10570       13.15752       73.54219
H         63.35696       14.65472       73.70817
Ca        56.80476       19.39434       73.71116
O         54.99421       20.90351       70.38151
H         55.21999       20.00585       70.73443
H         55.84713       21.24042       70.01144
O         57.79578       18.67354       76.40261
H         57.53273       19.62534       76.33393
H         57.06708       18.17931       75.95033
O         55.69114       16.90726       73.80797
H         54.85843       16.46697       74.10559
H         55.95779       16.43255       72.98252
O         59.54373       20.97069       74.33911
H         60.13380       20.23583       74.03825
H         59.50874       20.86906       75.32302

Ca 1.0



