%chk=apoCaM-CA-Ng.loop1.water5.frame476.chk
%nprocshared=20
%mem=10GB
%nosave
#b3lyp/svp scf=(tight,noincore,xqc) Test 
#IOP(5/87=12) Density=Current Pop=(MK,readradii) iop(6/33=2) iop(6/42=6)

apoCaM-CA-Ng.loop1.water5.frame476 

   0  1 
C         62.68807       50.80863       75.02835
C         61.69180       50.62148       73.92124
O         60.86134       49.72713       73.99636
H         63.71618       50.69330       74.62293
H         62.58399       51.82728       75.45820
H         62.53619       50.05984       75.83372
N         61.72818       51.44913       72.84235
C         60.81500       51.34585       71.70508
C         61.09774       50.12058       70.82975
O         60.44929       49.99679       69.80281
C         60.92617       52.61324       70.81767
C         60.50864       53.87228       71.53769
O         61.18894       54.31208       72.61346
O         59.55538       54.51780       71.13131
H         62.43339       52.20199       72.84748
H         59.76686       51.30307       72.07045
H         60.25323       52.49674       69.93871
H         61.96504       52.72867       70.43858
N         62.06422       49.20270       71.12255
C         62.48778       48.15917       70.19461
C         62.27839       46.76921       70.77551
O         62.59432       46.59296       71.94435
C         63.99205       48.37000       69.91363
C         64.33681       49.74937       69.32094
C         63.66482       50.01439       67.96177
C         64.03970       51.37831       67.36102
N         65.45274       51.45094       66.98742
H         62.59997       49.27626       71.99649
H         61.94413       48.23211       69.24487
H         64.36793       47.59034       69.22719
H         64.55491       48.25996       70.86724
H         65.43885       49.77483       69.20405
H         64.04673       50.54945       70.03611
H         62.56407       50.01665       68.09355
H         63.93341       49.21252       67.24175
H         63.78733       52.19222       68.07587
H         63.42948       51.53667       66.44642
H         65.62912       52.36448       66.51130
H         66.06626       51.39892       67.83010
H         65.68770       50.67670       66.32401
N         61.86269       45.67956       70.04808
C         61.52127       45.61026       68.62302
C         62.60235       46.21420       67.72198
O         62.32674       47.18874       67.03797
C         60.13307       46.20281       68.30822
C         58.97414       45.52019       68.94155
O         59.12790       44.49828       69.79608
O         57.84855       45.91971       68.68616
H         61.84421       44.77576       70.54744
H         61.42442       44.54093       68.35022
H         59.95184       46.05084       67.23766
H         60.08455       47.28122       68.55643
N         63.86027       45.71020       67.62152
C         64.29152       44.50448       68.29942
C         65.72963       44.12687       67.97277
O         66.42111       44.88270       67.30591
H         64.50970       46.20327       66.99034
H         63.63429       43.67992       67.94934
H         64.19287       44.62620       69.39823
N         66.26196       42.93190       68.35809
C         65.52166       41.91467       69.09561
C         65.07270       40.81423       68.15741
O         65.50923       40.77221       67.01395
C         66.33777       41.39911       70.30242
C         67.62455       40.68137       69.96113
O         67.96979       40.49386       68.80500
O         68.40530       40.22744       70.95931
H         67.21441       42.71049       68.03093
H         64.59116       42.34941       69.51029
H         65.70991       40.70161       70.89642
H         66.58628       42.26915       70.94840
N         64.12421       39.92717       68.56092
C         63.58420       38.89410       67.69561
C         62.96381       39.47944       66.44298
O         63.36192       39.09890       65.35179
H         63.74098       40.00563       69.51616
H         62.79927       38.33653       68.25187
H         64.38989       38.17729       67.42661
N         61.97853       40.41537       66.53466
C         61.29130       41.00302       65.38539
C         61.55535       42.50387       65.33960
O         61.44995       43.15703       66.36426
C         59.78887       40.65508       65.47163
C         58.99897       41.18418       64.27279
O         59.22641       41.16167       66.65433
H         61.68896       40.72163       67.47698
H         61.65813       40.55808       64.43395
H         59.69407       39.54114       65.44277
H         59.19710       40.41554       67.30974
H         59.02448       42.29315       64.24539
H         59.42293       40.78700       63.32553
H         57.94013       40.85690       64.34759
N         61.88487       43.11586       64.16297
C         62.27731       44.52249       64.04474
C         61.14177       45.37853       63.47675
O         61.27557       45.94486       62.40193
C         63.61021       44.65611       63.22855
C         63.51443       44.08546       61.77844
C         64.77306       43.99316       63.98984
C         64.66112       44.54480       60.87608
H         61.85478       42.54978       63.30356
H         62.47458       44.95755       65.04975
H         63.82518       45.74692       63.16713
H         62.59545       44.42952       61.27153
H         63.47659       42.97594       61.79335
H         64.61280       42.89704       64.07713
H         65.74101       44.16772       63.47834
H         64.85939       44.42121       65.00924
H         64.50401       44.14511       59.85142
H         64.67152       45.65492       60.81488
H         65.64407       44.18709       61.23760
N         60.01182       45.59304       64.21007
C         58.88943       46.40992       63.73098
C         58.76929       47.76260       64.43940
O         57.92098       48.54885       64.04278
C         57.57157       45.60383       63.83380
C         57.17453       45.27505       65.28540
O         57.70715       44.41511       63.09926
H         59.96638       45.17830       65.14994
H         59.04446       46.66067       62.65942
H         56.76396       46.22552       63.38268
H         56.79295       44.05443       62.96029
H         56.20332       44.73811       65.29313
H         57.92311       44.62373       65.78020
H         57.05471       46.20265       65.88309
N         59.58035       48.10140       65.48144
C         59.56909       49.35950       66.23179
C         58.20890       49.65561       66.87893
O         57.23220       48.98693       66.57350
C         60.07943       50.52282       65.34214
C         61.41281       50.15177       64.66837
O         60.26855       51.67017       66.12928
H         60.29882       47.43379       65.75773
H         60.30494       49.23894       67.05890
H         59.32500       50.73162       64.55033
H         60.38386       52.43482       65.50652
H         61.28603       49.28584       63.98509
H         61.78992       51.00335       64.06425
H         62.17310       49.88263       65.42841
N         58.08172       50.63715       67.82082
C         56.79851       51.03708       68.39874
C         56.49191       50.36490       69.73524
O         55.43063       50.64732       70.27557
C         56.73156       52.58231       68.50456
C         56.80508       53.31529       67.14734
C         55.59706       53.00184       66.24678
C         55.62263       53.81183       64.94489
N         54.45947       53.49024       64.11605
H         58.92543       51.13567       68.13785
H         55.96550       50.69630       67.75194
H         57.56871       52.93385       69.14808
H         55.78247       52.88757       68.99731
H         57.75175       53.06429       66.62203
H         56.80858       54.40839       67.35573
H         54.66178       53.24425       66.79781
H         55.59104       51.92583       65.97968
H         56.55210       53.57989       64.37916
H         55.61450       54.89946       65.18034
H         53.57684       53.72210       64.62781
H         54.49613       54.05179       63.23510
H         54.46336       52.47365       63.86890
N         57.29595       49.41184       70.29404
C         56.90344       48.66378       71.49045
C         56.71310       49.56575       72.69152
O         57.65116       50.22595       73.11505
C         57.92249       47.54517       71.81237
C         57.61250       46.75086       73.10435
C         56.20900       46.18755       73.17531
O         55.44375       46.58918       74.03649
O         55.78772       45.23143       72.32521
H         58.16924       49.15173       69.81861
H         55.94051       48.15435       71.26578
H         58.94276       47.97915       71.91334
H         57.93715       46.85205       70.95919
H         57.75952       47.43711       73.96547
H         58.34913       45.92562       73.21197
N         55.50846       49.58549       73.32608
C         55.27764       50.33757       74.53662
H         54.23412       50.17486       74.88290
H         55.96788       49.98437       75.33272
H         55.43441       51.41947       74.35175
H         54.73006       49.01739       72.95795
Ca        57.27595       44.23803       70.99669
O         56.84257       42.93489       67.73848
H         57.03001       41.96383       67.75561
H         56.05548       43.01942       67.14443
O         54.57812       41.62060       69.41548
H         54.97240       41.03176       70.10705
H         54.60323       41.08055       68.58606
O         58.96493       42.75024       72.94010
H         59.51568       43.33799       72.36376
H         58.59342       42.07252       72.32059
O         53.98206       42.91583       72.11349
H         53.87085       42.96216       73.09614
H         53.55523       43.74289       71.77497
O         54.69115       45.04583       68.65126
H         54.13282       44.48711       68.05393
H         55.01348       45.78133       68.07191

Ca 1.0



