%chk=apoCaM-CA-Ng.loop1.water5.frame341.chk
%nprocshared=20
%mem=10GB
%nosave
#b3lyp/svp scf=(tight,noincore,xqc) Test 
#IOP(5/87=12) Density=Current Pop=(MK,readradii) iop(6/33=2) iop(6/42=6)

apoCaM-CA-Ng.loop1.water5.frame341 

   0  1 
C         82.28122      101.44011       70.04361
C         81.89660      102.58007       69.14520
O         82.55823      102.79357       68.13933
H         83.30921      101.59677       70.42929
H         81.58872      101.35237       70.90815
H         82.24355      100.48920       69.47158
N         80.81278      103.34915       69.43846
C         80.34714      104.43077       68.57800
C         81.27135      105.65060       68.58164
O         80.92214      106.59864       67.90406
C         78.92523      104.89167       68.99835
C         77.88088      103.81074       68.86219
O         77.94300      102.69104       69.60715
O         76.94823      103.96000       68.08801
H         80.26783      103.11581       70.28188
H         80.26163      104.05243       67.53379
H         78.61323      105.72562       68.33243
H         78.93365      105.27137       70.04298
N         82.43334      105.74745       69.29565
C         83.18845      107.00329       69.36553
C         84.54438      106.92243       68.69516
O         85.12734      105.84761       68.73051
C         83.38336      107.40650       70.84292
C         82.05361      107.72886       71.54502
C         82.25004      108.65150       72.76049
C         83.18932      108.10251       73.84271
N         83.36323      109.08973       74.90960
H         82.77799      104.94552       69.84092
H         82.63796      107.80044       68.84634
H         84.02494      108.30144       70.87894
H         83.93695      106.62380       71.40693
H         81.52760      106.78586       71.80976
H         81.39986      108.29974       70.84978
H         81.25527      108.86379       73.20848
H         82.66863      109.61429       72.39072
H         84.18757      107.88247       73.40592
H         82.77075      107.16221       74.26221
H         83.78161      109.96689       74.51987
H         82.44249      109.31059       75.35340
H         84.01050      108.70626       75.63505
N         85.20272      108.00592       68.14814
C         84.75368      109.40028       67.94211
C         84.21685      110.10843       69.18888
O         83.02750      110.01165       69.45336
C         83.77413      109.56423       66.75862
C         84.38962      109.29849       65.41131
O         85.67924      108.93337       65.29195
O         83.71358      109.44147       64.40502
H         86.16592      107.81926       67.82585
H         85.64546      109.97217       67.61575
H         83.45485      110.62479       66.72562
H         82.87600      108.92822       66.89882
N         84.97907      110.91169       69.98542
C         86.37841      111.20613       69.72947
C         87.00031      112.13541       70.76318
O         86.34839      112.48283       71.73744
H         84.51025      111.34371       70.79611
H         86.43635      111.72059       68.74538
H         86.96048      110.25931       69.70279
N         88.26107      112.63756       70.61285
C         89.12272      112.35512       69.46932
C         89.18028      113.56202       68.55958
O         88.73252      114.63542       68.94235
C         90.51004      111.86851       69.93162
C         91.22740      112.86805       70.80117
O         91.53076      113.96662       70.36397
O         91.54557      112.54793       72.07026
H         88.59671      113.31484       71.31612
H         88.69010      111.54532       68.85069
H         91.14501      111.63501       69.05025
H         90.37103      110.92893       70.50975
N         89.62855      113.42190       67.28159
C         89.56012      114.49226       66.30422
C         88.13163      114.96184       66.14131
O         87.86800      116.14069       66.33373
H         89.97221      112.50130       66.96705
H         89.92745      114.11501       65.32499
H         90.21334      115.33452       66.62046
N         87.14807      114.07734       65.80749
C         85.74318      114.46936       65.66760
C         85.17767      114.92103       67.01813
O         85.83343      114.72786       68.03313
C         84.90006      113.28568       65.10214
C         85.41379      112.79712       63.74113
O         83.56346      113.67904       64.93796
H         87.42074      113.09555       65.65262
H         85.69411      115.31682       64.94830
H         84.95756      112.44635       65.83561
H         83.01348      112.85220       64.93445
H         85.37956      113.62093       62.99786
H         86.44800      112.41058       63.80109
H         84.77249      111.96526       63.38032
N         83.95066      115.52173       67.09799
C         83.31915      115.90671       68.36423
C         82.03690      115.11433       68.61108
O         81.53484      115.17369       69.72521
C         83.05586      117.45310       68.39701
C         82.60034      118.00582       69.77718
C         82.00660      117.87117       67.34433
C         83.64080      117.83773       70.88415
H         83.44783      115.70682       66.22112
H         84.01190      115.64491       69.18842
H         84.01052      117.96526       68.14466
H         81.63966      117.55394       70.09796
H         82.42078      119.09907       69.67747
H         82.31540      117.59159       66.31892
H         81.02219      117.40370       67.56013
H         81.86953      118.97316       67.35215
H         83.26175      118.30898       71.81614
H         83.83994      116.77037       71.10254
H         84.58723      118.34282       70.59628
N         81.42678      114.38088       67.62985
C         80.16800      113.67414       67.83705
C         80.30785      112.19971       67.53710
O         81.29373      111.78258       66.94665
C         79.04113      114.30230       66.97839
C         79.29536      114.19395       65.46342
O         78.90102      115.65281       67.33457
H         81.83332      114.34287       66.68934
H         79.86376      113.75659       68.90303
H         78.09569      113.76054       67.21439
H         78.01455      115.94997       67.00095
H         78.44043      114.63381       64.90820
H         80.21278      114.74090       65.16418
H         79.39108      113.13342       65.15235
N         79.33713      111.34195       67.94928
C         79.38824      109.90821       67.69277
C         79.14774      109.60380       66.21881
O         78.85276      110.50419       65.44526
C         78.37916      109.15259       68.59832
C         76.90952      109.49389       68.30763
O         78.67538      109.44093       69.94135
H         78.56966      111.72993       68.51606
H         80.40171      109.54169       67.97565
H         78.51766      108.06371       68.42392
H         78.31475      108.69447       70.48764
H         76.64934      109.24128       67.25876
H         76.25385      108.89978       68.97819
H         76.69192      110.56637       68.48306
N         79.25599      108.32363       65.77422
C         79.00122      107.89128       64.41466
C         80.30809      107.40188       63.80943
O         80.71273      107.93857       62.78763
C         77.90980      106.79804       64.45923
C         77.34670      106.42557       63.07858
C         76.36752      105.23419       63.13434
C         75.14522      105.45014       64.04711
N         74.27299      104.27451       64.03312
H         79.51650      107.59773       66.44159
H         78.61569      108.73973       63.80566
H         77.06779      107.19085       65.06843
H         78.31016      105.89407       64.96796
H         78.18036      106.13678       62.40374
H         76.83669      107.31337       62.64307
H         76.92093      104.33649       63.48486
H         76.00819      105.03684       62.10044
H         74.57144      106.34014       63.70644
H         75.47538      105.62182       65.09375
H         74.79947      103.43293       64.36409
H         73.46486      104.43654       64.67691
H         73.90880      104.10433       63.06783
N         81.02700      106.39326       64.39360
C         82.28685      105.88495       63.85947
C         82.04404      104.49793       63.32533
O         81.67780      103.61462       64.08894
C         83.38903      105.88800       64.94960
C         84.76095      105.30255       64.53038
C         85.40051      105.97223       63.33903
O         84.87755      105.89526       62.23986
O         86.58228      106.61276       63.45172
H         80.65154      105.93735       65.23855
H         82.62872      106.53527       63.02810
H         83.03834      105.30455       65.82934
H         83.53557      106.92215       65.29522
H         84.65644      104.21933       64.30699
H         85.44331      105.39536       65.40269
N         82.21187      104.24899       61.99721
C         81.97501      102.95987       61.38838
H         81.18829      103.06738       60.61279
H         82.91109      102.60704       60.90887
H         81.64281      102.19981       62.12526
H         82.51281      105.01267       61.37294
Ca        87.71505      106.88782       65.39293
O         91.13459      108.11421       63.94848
H         91.62516      107.25564       63.99390
H         91.70050      108.69312       63.37818
O         86.34292      109.87052       62.12952
H         86.02543      109.09551       62.65543
H         85.76015      109.87744       61.32961
O         88.85940      107.98725       61.45646
H         89.82502      108.15423       61.31529
H         88.41159      108.51481       60.74823
O         89.11273      110.60491       63.84269
H         88.64025      111.46076       63.99451
H         89.87390      110.63091       64.47507
O         89.26000      104.71603       64.01164
H         89.95336      105.33306       64.35653
H         89.10369      105.01480       63.08072

Ca 1.0



