%chk=apoCaM-CA-Ng.loop1.water3.frame420.chk
%nprocshared=20
%mem=10GB
%nosave
#b3lyp/svp scf=(tight,noincore,xqc) Test 
#IOP(5/87=12) Density=Current Pop=(MK,readradii) iop(6/33=2) iop(6/42=6)

apoCaM-CA-Ng.loop1.water3.frame420 

   0  1 
C        107.03047       83.29314       67.80260
C        106.46794       84.37949       66.93359
O        105.33047       84.26502       66.50041
H        108.05689       83.54136       68.14813
H        106.38401       83.16690       68.69605
H        107.06836       82.33933       67.23740
N        107.22016       85.47099       66.62893
C        106.72286       86.59198       65.84333
C        107.01584       86.42219       64.35775
O        106.83080       87.38114       63.62782
C        107.32141       87.91322       66.37780
C        106.96061       88.15488       67.82050
O        107.40610       87.32908       68.78638
O        106.26675       89.10991       68.12544
H        108.18575       85.52431       66.99012
H        105.62199       86.69156       65.95521
H        106.91337       88.74991       65.77297
H        108.42762       87.91998       66.26890
N        107.42786       85.23883       63.81577
C        107.75385       85.08882       62.40039
C        106.80476       84.14457       61.67918
O        106.47798       83.11548       62.25393
C        109.18297       84.54587       62.24711
C        110.24632       85.56682       62.66558
C        111.60285       85.17284       62.05906
C        112.72456       86.16097       62.39661
N        113.14004       86.05373       63.79412
H        107.52238       84.40620       64.41435
H        107.71775       86.06123       61.89228
H        109.33685       84.31966       61.18155
H        109.32141       83.58272       62.78554
H        110.26396       85.64220       63.77264
H        109.98862       86.56567       62.24780
H        111.48171       85.18312       60.95202
H        111.89739       84.14536       62.36259
H        112.40233       87.20067       62.16187
H        113.59984       85.92332       61.75243
H        113.91487       86.73283       63.96906
H        112.34940       86.27039       64.44016
H        113.49545       85.08696       63.97919
N        106.40665       84.31790       60.37165
C        106.71881       85.43882       59.46862
C        108.21719       85.69516       59.35276
O        108.68370       86.74313       59.76804
C        105.88896       86.69289       59.81633
C        104.41841       86.43494       59.64944
O        103.61927       87.31390       59.92940
O        103.96605       85.24613       59.19624
H        105.84567       83.55682       59.95712
H        106.37465       85.18097       58.44370
H        106.15516       87.52609       59.13069
H        106.07292       87.02052       60.85700
N        109.06495       84.79593       58.78532
C        108.59395       83.57201       58.16852
C        109.69736       82.75852       57.52723
O        110.86677       83.05811       57.71913
H        110.06672       85.03773       58.75589
H        107.89763       83.87401       57.36069
H        108.06356       82.93520       58.90709
N        109.41451       81.73148       56.67563
C        108.05875       81.35802       56.27625
C        107.74477       81.96119       54.91941
O        108.63709       82.51004       54.28463
C        107.85095       79.82733       56.31675
C        108.69559       79.06209       55.32666
O        110.03815       79.04713       55.42748
O        108.15835       78.41475       54.44239
H        110.21266       81.29265       56.19639
H        107.31889       81.78302       56.98329
H        106.78032       79.61737       56.10175
H        108.06444       79.44925       57.33985
N        106.47520       81.93797       54.42542
C        106.13359       82.50505       53.13062
C        106.42588       83.99279       53.02275
O        106.65360       84.44992       51.91211
H        105.72512       81.49275       54.97672
H        105.06073       82.32856       52.90119
H        106.72773       81.97018       52.35791
N        106.39315       84.81843       54.11054
C        106.72393       86.24470       54.05056
C        107.70131       86.57493       55.16093
O        107.46504       86.15887       56.28508
C        105.45286       87.11215       54.14812
C        105.78283       88.57960       53.83937
O        104.86101       87.02240       55.41827
H        106.11040       84.42242       55.02047
H        107.18040       86.48937       53.06541
H        104.73038       86.78734       53.36330
H        104.37157       86.16037       55.44755
H        106.22583       88.66580       52.82212
H        104.86116       89.19591       53.86679
H        106.51182       88.98931       54.56762
N        108.81086       87.33141       54.93299
C        109.84829       87.51360       55.94167
C        109.84657       88.96629       56.41436
O        110.84242       89.66085       56.26482
C        111.21382       87.01315       55.35813
C        111.04042       85.65038       54.61968
C        112.26573       86.89324       56.47949
C        112.30311       85.15370       53.91448
H        108.95226       87.75508       54.00269
H        109.62736       86.89021       56.83511
H        111.55908       87.75125       54.59979
H        110.28851       85.76486       53.80987
H        110.67200       84.87126       55.32095
H        111.95333       86.12057       57.21539
H        113.25652       86.61131       56.07079
H        112.40265       87.85195       57.01634
H        113.10166       84.90021       54.63827
H        112.06150       84.23310       53.34104
H        112.67272       85.92163       53.20113
N        108.72356       89.48567       57.00170
C        108.61294       90.86998       57.47840
C        108.33335       90.97330       58.98306
O        108.30613       92.08763       59.48384
C        107.52322       91.62187       56.67502
C        106.10489       91.08060       56.92738
O        107.82806       91.53962       55.30673
H        107.90395       88.86846       57.09543
H        109.57600       91.39834       57.30234
H        107.54935       92.69094       56.99281
H        107.28415       92.23129       54.84695
H        105.36924       91.67196       56.34343
H        106.01172       90.01897       56.62733
H        105.83526       91.17022       57.99960
N        108.10298       89.86755       59.75301
C        107.85454       89.83237       61.19966
C        106.53794       90.53028       61.57512
O        105.94921       91.18691       60.72833
C        109.12986       90.30995       61.96301
C        109.21956       89.88072       63.42906
O        109.26621       91.70645       61.89070
H        108.11069       88.95770       59.28852
H        107.71996       88.75757       61.45028
H        109.99269       89.79715       61.46989
H        110.16535       91.90347       61.51928
H        109.12279       88.77782       63.51682
H        110.21377       90.16724       63.83400
H        108.46615       90.38408       64.05576
N        105.99382       90.39327       62.82222
C        104.75460       91.04307       63.25774
C        103.65703       90.04617       63.66810
O        102.59373       90.49358       64.07418
C        105.08156       92.09968       64.34170
C        105.75885       91.57189       65.61707
C        106.18591       92.74007       66.52144
C        106.92849       92.24441       67.76965
N        107.40797       93.36466       68.57856
H        106.47806       89.80382       63.50525
H        104.31417       91.62671       62.41999
H        104.15362       92.64550       64.62066
H        105.77144       92.83412       63.86836
H        106.67974       91.02474       65.34807
H        105.07252       90.88479       66.15682
H        105.29525       93.33056       66.82749
H        106.87175       93.40204       65.94689
H        107.80070       91.62384       67.46246
H        106.24268       91.62101       68.38096
H        107.90554       92.99043       69.41888
H        108.07761       93.94728       68.02479
H        106.60347       93.95330       68.89399
N        103.79868       88.69683       63.49866
C        102.72181       87.72272       63.71123
C        102.29279       87.61775       65.16033
O        103.11117       87.30346       66.01306
C        103.17390       86.33109       63.21153
C        102.15345       85.18011       63.33475
C        100.80730       85.39843       62.67698
O        100.45378       84.66405       61.60552
O         99.99388       86.16006       63.16898
H        104.68021       88.34709       63.10644
H        101.85765       88.02389       63.08049
H        104.09256       86.02297       63.75943
H        103.44702       86.42118       62.14996
H        101.97828       84.93312       64.40340
H        102.63365       84.29021       62.87087
N        100.98243       87.78336       65.49162
C        100.48180       87.53373       66.82427
H         99.38003       87.67904       66.84441
H        100.69322       86.47964       67.11018
H        100.95599       88.22265       67.55128
H        100.30071       88.04507       64.76459
Ca       102.03851       84.51220       60.04376
O        100.69609       86.58517       57.90712
H         99.86323       87.11057       58.00870
H        101.25540       86.86154       58.67523
O        100.26167       83.28707       56.70231
H         99.81771       84.13304       56.44195
H         99.51634       82.65324       56.85543
O         98.66299       84.26425       59.26520
H         98.26032       83.39586       59.51858
H         98.08563       84.60397       58.53630

Ca 1.0



