%chk=apoCaM-CA-Ng.loop1.water3.frame1451.chk
%nprocshared=20
%mem=10GB
%nosave
#b3lyp/svp scf=(tight,noincore,xqc) Test 
#IOP(5/87=12) Density=Current Pop=(MK,readradii) iop(6/33=2) iop(6/42=6)

apoCaM-CA-Ng.loop1.water3.frame1451 

   0  1 
C         34.25591       78.22374      121.91817
C         34.40695       79.58756      122.52455
O         34.49328       80.55257      121.77955
H         33.35697       78.20786      121.26793
H         35.15246       77.98207      121.30864
H         34.14080       77.44440      122.70026
N         34.48721       79.73670      123.87836
C         34.65977       81.02722      124.54094
C         36.09654       81.16807      124.99821
O         36.37688       81.40752      126.16451
C         33.61675       81.20418      125.66861
C         33.70469       80.20170      126.80072
O         32.81320       80.26942      127.80593
O         34.56946       79.33944      126.83289
H         34.48191       78.88453      124.45501
H         34.50012       81.85243      123.81203
H         32.60493       81.13058      125.21635
H         33.72544       82.22216      126.10227
N         37.07059       81.03970      124.06430
C         38.49364       81.11581      124.33963
C         38.99317       82.53800      124.17176
O         39.60082       83.02029      125.11849
C         39.26412       80.05367      123.53435
C         38.75378       78.65078      123.91404
C         39.49371       77.54239      123.16844
C         38.95395       76.16760      123.58918
N         39.59514       75.09881      122.82701
H         36.77268       80.82373      123.10609
H         38.67908       80.84948      125.40626
H         40.34562       80.12318      123.78562
H         39.14943       80.21719      122.44272
H         37.67082       78.57084      123.67225
H         38.88177       78.49995      125.00936
H         40.58099       77.59655      123.39608
H         39.34448       77.68167      122.07614
H         37.85517       76.12566      123.41498
H         39.13982       76.01240      124.67628
H         39.22393       74.17711      123.15239
H         39.37675       75.21058      121.81013
H         40.63035       75.12156      122.97215
N         38.73918       83.34912      123.10199
C         37.99168       83.02701      121.88043
C         36.60523       83.65505      121.91627
O         36.28641       84.38188      122.84693
C         38.79287       83.45643      120.64524
C         39.29290       84.85277      120.80807
O         38.44722       85.89975      120.87301
O         40.48534       85.01418      120.99606
H         39.05298       84.32560      123.21427
H         37.84626       81.94607      121.77088
H         38.21430       83.35335      119.70162
H         39.67681       82.78544      120.56779
N         35.68664       83.31464      120.96451
C         34.28623       83.70055      121.04166
C         34.01228       85.13319      120.67215
O         34.91437       85.83872      120.25220
H         35.96064       82.64696      120.22832
H         33.90518       83.48152      122.06181
H         33.70314       83.08444      120.32304
N         32.75116       85.62384      120.80532
C         32.31221       86.95643      120.38653
C         30.96748       86.84353      119.65880
O         30.33512       85.79722      119.76768
C         32.12550       87.82062      121.64793
C         33.41734       88.08152      122.37038
O         33.61804       87.60131      123.47124
O         34.30555       88.95134      121.87864
H         32.05582       85.00627      121.25842
H         33.06513       87.41377      119.70871
H         31.43494       87.28259      122.33336
H         31.66938       88.80402      121.41874
N         30.40241       87.83852      118.91701
C         31.01517       89.10310      118.53843
C         32.19310       88.88028      117.61801
O         32.08540       88.06810      116.71077
H         29.45812       87.66683      118.53503
H         31.26758       89.73099      119.41460
H         30.25972       89.66820      117.94706
N         33.33334       89.62132      117.75274
C         34.46516       89.49170      116.83567
C         35.39065       88.31929      117.29028
O         36.30804       88.77520      118.22360
C         35.24752       90.82897      116.73683
C         34.41127       91.95548      116.12579
O         36.39979       90.64837      115.95411
H         33.34301       90.36925      118.46164
H         34.06329       89.27481      115.81836
H         35.53298       91.12065      117.77345
H         37.05406       91.33694      116.24330
H         35.00663       92.89390      116.13050
H         34.14800       91.71077      115.07476
H         33.48190       92.12987      116.70535
N         36.16771       87.78905      116.17178
C         36.88236       86.51088      116.40747
C         38.23641       86.76075      117.07536
O         38.27117       87.14715      118.23577
C         36.11589       85.40080      117.22174
C         34.57649       85.29749      117.04096
C         36.77526       84.03265      116.95444
C         34.08233       85.12226      115.61153
H         35.57846       87.71827      115.31482
H         37.06622       86.10324      115.38897
H         36.25231       85.61490      118.29966
H         34.08457       86.19271      117.46629
H         34.20437       84.44384      117.65226
H         37.85881       84.05845      117.19355
H         36.30900       83.24041      117.57744
H         36.66668       83.75184      115.88543
H         34.37279       85.97985      114.98205
H         34.47233       84.18911      115.16388
H         32.97249       85.08091      115.62478
N         39.39986       86.51906      116.41090
C         40.71709       86.64638      117.03032
C         41.56325       87.74937      116.41014
O         42.70984       87.86389      116.80315
C         41.44326       85.27096      117.03474
C         41.71870       84.70145      115.64670
O         40.67732       84.32628      117.72684
H         39.34904       86.21101      115.42932
H         40.62531       86.94291      118.10053
H         42.42766       85.38483      117.54804
H         40.60792       84.66195      118.64856
H         40.76786       84.46931      115.12461
H         42.32185       85.40540      115.04016
H         42.28266       83.74967      115.75688
N         41.05905       88.61963      115.48110
C         41.79229       89.77274      114.93852
C         42.05487       90.79085      116.05542
O         41.23637       91.66207      116.30449
C         41.00635       90.37064      113.73470
C         40.98463       89.36944      112.57054
O         39.67158       90.66047      114.07668
H         40.09101       88.47800      115.16694
H         42.77410       89.44000      114.53336
H         41.52214       91.28465      113.36020
H         39.65473       91.52196      114.56158
H         40.45889       88.43306      112.85669
H         40.45651       89.80828      111.69865
H         42.01935       89.10967      112.26035
N         43.12308       90.60611      116.88377
C         43.29595       91.21118      118.20289
C         42.16378       90.80687      119.12878
O         41.14227       90.32812      118.65911
C         43.46217       92.74131      118.22527
C         44.55106       93.25352      117.28135
C         44.97573       94.67108      117.69022
C         45.92705       95.29205      116.66279
N         46.59651       96.46811      117.21827
H         43.82141       89.89400      116.62803
H         44.22856       90.76693      118.62122
H         43.73341       93.00632      119.27187
H         42.51069       93.26405      117.98366
H         44.16233       93.21812      116.24035
H         45.45627       92.61054      117.34875
H         45.49044       94.58318      118.67355
H         44.09881       95.34498      117.81532
H         45.33837       95.57259      115.75978
H         46.70481       94.55786      116.36061
H         47.16253       96.92753      116.46927
H         45.90287       97.15137      117.59901
H         47.24413       96.16432      117.98290
N         42.29538       90.92623      120.47700
C         41.24192       90.53696      121.41021
C         40.74041       89.13353      121.12791
O         39.54246       88.99672      120.92666
C         41.69107       90.65707      122.87940
C         41.93979       92.11423      123.28295
C         42.35857       92.19686      124.72026
O         41.59583       92.86214      125.60790
O         43.39343       91.66537      125.09086
H         43.19574       91.26648      120.84761
H         40.37298       91.22194      121.27271
H         42.60035       90.05000      123.06412
H         40.88077       90.26003      123.53161
H         40.99855       92.68885      123.13943
H         42.73083       92.57404      122.65560
N         41.52801       88.02781      121.05951
C         42.96206       87.94667      121.22072
H         43.44731       88.91954      121.38667
H         43.18983       87.28034      122.07904
H         43.39909       87.50068      120.30245
H         41.05559       87.15371      120.84287
Ca        35.73116       88.38051      120.31304
O         37.17717       87.69306      123.38209
H         37.45501       88.08922      124.24592
H         36.30845       87.26080      123.57722
O         36.79561       90.71632      121.93713
H         36.08747       90.61224      122.62035
H         36.91696       91.69491      121.85572
O         37.97344       90.41987      119.18627
H         38.74103       90.36235      118.56918
H         37.53684       91.27708      118.96464

Ca 1.0



