%chk=apoCaM-CA-Ng.loop3.water6.frame19.chk
%nprocshared=20
%mem=10GB
%nosave
#b3lyp/svp scf=(tight,noincore,xqc) Test 
#IOP(5/87=12) Density=Current Pop=(MK,readradii) iop(6/33=2) iop(6/42=6)

apoCaM-CA-Ng.loop3.water6.frame19 

   0  1 
C         94.41106       50.90943       63.71654
C         95.85964       51.27928       63.60744
O         96.61856       50.52242       63.02380
H         93.78982       51.68572       63.22333
H         94.21641       49.93153       63.22499
H         94.12486       50.83309       64.78615
N         96.30774       52.45256       64.14383
C         97.69155       52.92931       64.09423
C         98.65368       52.11572       64.95520
O         99.83501       52.43280       64.93632
C         98.21085       53.01797       62.63842
C         97.30690       53.84585       61.77121
O         96.78705       53.35395       60.78228
O         97.07181       55.13617       62.07564
H         95.61555       53.07064       64.59461
H         97.71103       53.95987       64.51459
H         98.32287       52.00411       62.20052
H         99.21911       53.48551       62.63260
N         98.24239       51.08158       65.74802
C         99.16119       50.27076       66.54432
C         99.20788       48.83613       66.04558
O         99.95943       48.04996       66.60706
C         98.80306       50.38470       68.04216
C         98.91783       51.83342       68.57180
C        100.35603       52.38565       68.50124
C        100.43991       53.83672       68.98560
N        101.81067       54.33870       68.87119
H         97.24286       50.83971       65.80005
H        100.20632       50.60866       66.41473
H         99.47886       49.73815       68.64414
H         97.76159       50.02515       68.19391
H         98.58845       51.84691       69.63372
H         98.23303       52.49135       67.99426
H        100.72232       52.38406       67.45806
H        101.02632       51.74597       69.11630
H        100.10574       53.90400       70.04386
H         99.77004       54.46914       68.36067
H        102.45252       53.77480       69.47451
H        102.13247       54.28811       67.87648
H        101.84039       55.33643       69.18126
N         98.52643       48.44927       64.92666
C         98.73905       47.17259       64.26108
C        100.19913       47.11602       63.84302
O        100.61909       47.96633       63.06940
C         97.81394       47.09168       63.02092
C         97.89707       45.80807       62.24842
O         97.23398       45.68160       61.23210
O         98.67157       44.79026       62.66392
H         97.89150       49.11203       64.47334
H         98.48441       46.35070       64.96457
H         98.06428       47.92905       62.33147
H         96.75845       47.22106       63.34655
N        101.05320       46.20055       64.38144
C        102.48407       46.23873       64.11966
C        102.87291       45.89323       62.69666
O        104.03483       46.08080       62.36433
H        100.69713       45.52103       65.06999
H        103.01262       45.53199       64.79464
H        102.84685       47.26264       64.35978
N        101.99335       45.34174       61.81096
C        102.38014       44.97357       60.45058
C        102.60756       46.18745       59.55616
O        103.05723       45.99719       58.43403
C        101.31711       44.05054       59.81722
C        101.16862       42.76379       60.59263
N        102.20621       41.90147       60.71320
O        100.09741       42.49440       61.11146
H        101.04496       45.11327       62.13161
H        103.33524       44.40652       60.50249
H        101.60701       43.78587       58.77869
H        100.34271       44.58810       59.77972
H        103.11578       42.10149       60.27269
H        102.09949       41.02430       61.24405
N        102.32460       47.45881       59.96621
C        102.56686       48.63164       59.14553
C        101.74601       48.60076       57.88204
O        100.53222       48.54005       57.98487
H        101.92852       47.62405       60.89971
H        103.65229       48.70354       58.92057
H        102.27841       49.54054       59.71748
N        102.35843       48.69231       56.66257
C        101.71048       48.69892       55.34914
C        101.25850       47.32066       54.90754
O        101.74894       46.87695       53.88188
C        100.56187       49.72194       55.22996
C        100.99487       51.11357       55.60856
C        100.39195       51.76233       56.69784
C        101.99491       51.77865       54.87891
C        100.78589       53.05280       57.05651
C        102.38653       53.07108       55.23860
C        101.78272       53.71211       56.33047
O        102.14984       54.95826       56.68935
H        103.38263       48.81591       56.65631
H        102.49172       49.00427       54.61484
H         99.70738       49.40204       55.86007
H        100.19085       49.73796       54.18137
H         99.61823       51.26863       57.27275
H        102.46925       51.30085       54.03075
H        100.31387       53.53965       57.90020
H        103.15774       53.57260       54.66772
H        102.83377       55.44966       56.21283
N        100.28423       46.62839       55.57168
C         99.72937       45.32756       55.19854
C        100.68170       44.18150       55.56210
O        100.29851       43.36202       56.38663
C         99.17595       45.31305       53.74132
C         98.36326       46.59884       53.39539
C         98.31796       44.05783       53.50081
C         97.19023       46.91482       54.33108
H         99.83522       47.07235       56.37716
H         98.83921       45.17889       55.85395
H        100.02479       45.27547       53.02594
H         97.97974       46.51914       52.35527
H         99.04068       47.47728       53.41232
H         97.94080       44.04545       52.45591
H         98.91300       43.13676       53.66255
H         97.44691       44.02995       54.18911
H         96.43280       46.10679       54.31950
H         97.54046       47.07805       55.37104
H         96.70141       47.85470       53.99648
N        101.94879       44.08372       55.05997
C        102.91515       43.09862       55.53845
C        102.66005       41.69727       55.01413
O        103.34074       40.78823       55.46851
C        104.34534       43.53214       55.16735
O        104.49561       43.57902       53.77395
H        102.28329       44.78047       54.39491
H        102.86749       43.08495       56.65054
H        105.08017       42.81590       55.59796
H        104.52895       44.54109       55.60338
H        105.37657       44.00365       53.60564
N        101.72661       41.44028       54.04871
C        101.47978       40.12121       53.47350
C        100.90571       39.11803       54.46510
O        100.66708       37.99168       54.04942
C        102.74580       39.57712       52.78864
H        101.17796       42.21829       53.65759
H        100.71529       40.23754       52.67271
H        102.51807       38.62699       52.25973
H        103.11062       40.30842       52.03634
H        103.56018       39.37224       53.51167
N        100.60679       39.44357       55.76037
C         99.99121       38.50416       56.68948
C         98.61737       38.99419       57.08667
O         98.28621       40.14332       56.82185
C        100.87873       38.33156       57.92335
H        100.76948       40.39845       56.10701
H         99.86161       37.51226       56.20546
H        100.42677       37.60755       58.63370
H        101.87776       37.95320       57.61951
H        101.01167       39.30621       58.44267
N         97.72804       38.13547       57.66897
C         96.36825       38.50641       58.05527
C         95.51061       38.97433       56.87617
O         94.38501       39.38745       57.11985
C         96.40120       39.55644       59.18916
C         97.10365       39.00040       60.43865
C         97.12087       40.01053       61.54449
O         96.07553       40.44646       62.00031
O         98.29586       40.43863       62.04038
H         98.02242       37.16198       57.84147
H         95.85571       37.61053       58.47175
H         95.35796       39.82124       59.47021
H         96.90751       40.48346       58.85037
H         98.15076       38.72217       60.19097
H         96.57189       38.09148       60.79524
N         95.94188       38.91188       55.57941
C         95.15617       39.37115       54.45170
H         94.17991       39.80122       54.75732
H         95.72526       40.15415       53.90702
H         94.96911       38.52105       53.76315
H         96.85979       38.51117       55.34900
Ca        98.33837       42.01770       63.64852
O         96.89197       42.93946       60.12828
H         97.73911       42.76019       59.64846
H         97.15630       43.00167       61.08017
O         95.85731       43.95984       63.75782
H         95.26400       43.45094       64.36441
H         95.33376       44.06130       62.92356
O        101.23343       42.91360       64.31891
H        102.02585       43.10458       63.75745
H        101.30275       41.94809       64.52536
O         99.25663       40.38126       65.98362
H        100.03245       39.76665       65.99408
H         99.44083       41.02862       66.70964
O         98.53039       43.80817       66.11209
H         99.07855       43.68679       66.92743
H         97.75871       44.35279       66.40873
O         96.17185       40.97709       65.44620
H         96.04007       40.22201       66.07223
H         95.55778       40.78663       64.69341

Ca 1.0



