%chk=apoCaM-CA-Ng.loop1.water5.frame1001.chk
%nprocshared=20
%mem=10GB
%nosave
#b3lyp/svp scf=(tight,noincore,xqc) Test 
#IOP(5/87=12) Density=Current Pop=(MK,readradii) iop(6/33=2) iop(6/42=6)

apoCaM-CA-Ng.loop1.water5.frame1001 

   0  1 
C         31.28004       34.12234        3.27364
C         30.25114       34.02807        4.35785
O         30.30084       33.09950        5.15277
H         31.99794       33.27716        3.33853
H         30.78200       34.09999        2.28258
H         31.84121       35.07478        3.38105
N         29.28807       34.98441        4.46408
C         28.29773       34.97746        5.53064
C         27.39230       33.75871        5.39155
O         26.76893       33.60270        4.35029
C         27.46735       36.27795        5.49872
C         26.68940       36.48365        6.76689
O         25.95271       37.45046        6.87625
O         26.85986       35.65508        7.81608
H         29.29454       35.76326        3.78646
H         28.85767       34.96145        6.49316
H         26.78964       36.26994        4.61671
H         28.14476       37.15451        5.40835
N         27.30258       32.83476        6.38912
C         26.55240       31.58755        6.25115
C         25.06094       31.74963        5.92529
O         24.69918       31.27526        4.85638
C         26.77904       30.65086        7.46792
C         28.00702       29.72024        7.31933
C         27.81474       28.59865        6.26116
C         26.71372       27.58220        6.64160
N         26.51946       26.58849        5.58674
H         27.84372       32.99855        7.25205
H         26.96721       31.07181        5.36218
H         25.90238       30.00400        7.63193
H         26.87695       31.27174        8.38126
H         28.20902       29.22502        8.29433
H         28.89694       30.33566        7.06337
H         28.77060       28.03959        6.16315
H         27.59069       29.02940        5.26625
H         25.73779       28.07932        6.80321
H         27.00125       27.07146        7.58784
H         27.40962       26.07760        5.39137
H         25.79115       25.90348        5.89516
H         26.18058       27.06124        4.71675
N         24.09084       32.29525        6.72102
C         24.24312       32.94210        8.01334
C         23.23378       34.09151        8.11231
O         22.04129       33.85146        7.98216
C         23.96238       31.93106        9.13807
C         24.03897       32.59723       10.47048
O         25.04206       33.21603       10.78151
O         22.98105       32.56190       11.30112
H         23.12300       32.20722        6.37053
H         25.28224       33.31859        8.13282
H         24.70666       31.11833        9.12629
H         22.96087       31.47152        9.01087
N         23.64235       35.36798        8.33815
C         22.73925       36.50505        8.37928
C         21.94465       36.64120        9.66300
O         21.17595       37.58878        9.73793
H         24.64129       35.55807        8.42566
H         22.06544       36.47199        7.49501
H         23.34281       37.43477        8.29999
N         22.09570       35.79528       10.72866
C         21.38691       35.95757       11.99875
C         21.76438       37.28121       12.63931
O         20.91654       38.15710       12.74270
C         19.85925       35.78007       11.80866
C         19.58478       34.38518       11.33428
O         19.02772       34.17910       10.26828
O         20.01034       33.35771       12.09088
H         22.75922       35.01608       10.66082
H         21.70072       35.16366       12.70792
H         19.43911       36.52563       11.10114
H         19.34654       35.91692       12.78609
N         23.02671       37.53842       13.09135
C         24.12764       36.58504       13.13468
C         23.91151       35.51820       14.19200
O         23.65427       35.87154       15.33378
H         23.22317       38.48592       13.45075
H         25.04057       37.13648       13.44688
H         24.33448       36.16342       12.12860
N         24.07699       34.19479       13.89914
C         23.96181       33.11933       14.88547
C         24.49665       31.80998       14.30012
O         23.76646       31.12735       13.59627
C         22.49604       32.98877       15.39163
C         22.30438       31.85741       16.40693
O         21.63816       32.77751       14.30123
H         24.36380       33.95451       12.94563
H         24.61860       33.37822       15.74516
H         22.22454       33.94370       15.89571
H         20.75274       33.14875       14.55527
H         22.52262       30.86911       15.94988
H         22.96286       32.00922       17.28616
H         21.24722       31.84574       16.75051
N         25.79212       31.42853       14.53471
C         26.42337       30.20343       14.03211
C         25.88047       28.97252       14.74707
O         24.68101       28.75468       14.79380
C         26.39025       30.09500       12.47553
C         27.14402       31.27327       11.80659
C         26.94537       28.74934       11.97199
C         28.65993       31.31875       12.03442
H         26.38944       32.06099       15.08908
H         27.49614       30.24866       14.30580
H         25.33990       30.13257       12.12721
H         26.72205       32.22720       12.17691
H         26.97477       31.21560       10.71157
H         27.98466       28.57727       12.32109
H         26.31398       27.91883       12.34059
H         26.91920       28.70980       10.86193
H         28.91084       31.43783       13.10670
H         29.15465       30.40990       11.63536
H         29.07931       32.19242       11.49295
N         26.77493       28.09821       15.29579
C         26.42820       26.89438       16.04438
C         27.17646       26.90068       17.37653
O         27.91771       27.83019       17.64925
C         26.78928       25.63239       15.20832
C         28.28649       25.52886       14.84064
O         25.96215       25.56442       14.06961
H         27.77938       28.28159       15.15950
H         25.33815       26.85549       16.25415
H         26.55836       24.72540       15.80276
H         26.46741       25.86852       13.27407
H         28.60156       26.36688       14.18428
H         28.91981       25.53138       15.75166
H         28.46615       24.57951       14.29370
N         27.07722       25.83047       18.22089
C         27.91785       25.67769       19.40050
C         28.97909       24.65057       19.04375
O         28.63015       23.53537       18.69283
C         27.06225       25.26265       20.62077
C         27.91075       25.13610       21.89256
O         26.06521       26.22864       20.83110
H         26.47417       25.03997       17.96159
H         28.41928       26.63728       19.65237
H         26.58650       24.27880       20.39709
H         25.37125       25.80471       21.40213
H         28.39854       26.10471       22.13446
H         27.27088       24.83639       22.74931
H         28.68742       24.36019       21.76693
N         30.30343       24.99356       19.07739
C         31.41115       24.13067       18.66887
C         31.43025       23.87974       17.17168
O         30.44869       23.40974       16.61165
C         31.46984       22.78859       19.41967
C         31.59438       22.97722       20.93189
C         31.82819       21.63207       21.62321
C         31.88805       21.80281       23.14412
N         32.18336       20.52925       23.79795
H         30.55411       25.93502       19.41240
H         32.35526       24.66311       18.92442
H         32.37426       22.24838       19.05922
H         30.58937       22.15251       19.18952
H         30.66859       23.44447       21.31626
H         32.45295       23.64756       21.15720
H         32.78971       21.20578       21.25976
H         31.00624       20.92739       21.36864
H         30.90870       22.18849       23.50628
H         32.67762       22.54036       23.41021
H         33.12865       20.19042       23.50439
H         32.18094       20.66849       24.83391
H         31.45995       19.81661       23.54765
N         32.58283       24.09557       16.47659
C         32.74107       23.78944       15.06187
C         31.88087       24.70750       14.20098
O         31.06104       24.17695       13.46597
C         34.24539       23.79621       14.67467
C         34.55576       23.20361       13.28923
C         34.06132       24.05352       12.15664
O         33.27587       23.59594       11.34220
O         34.50297       25.31837       12.01969
H         33.41243       24.41719       16.99981
H         32.41219       22.73500       14.91127
H         34.76466       23.13735       15.40621
H         34.70379       24.80060       14.76179
H         34.12875       22.17815       13.22356
H         35.65895       23.11815       13.18528
N         31.96433       26.07324       14.19598
C         32.83027       26.88844       15.02519
H         33.50132       27.49088       14.37836
H         32.20617       27.57763       15.63183
H         33.45245       26.31270       15.72547
H         31.34269       26.58991       13.55430
Ca        20.03207       31.19897       11.47695
O         18.77481       31.15444       14.22289
H         18.31919       30.27947       14.30439
H         18.19086       31.68315       13.62276
O         21.46240       28.81799       13.60941
H         20.62679       28.85196       14.13884
H         21.84339       27.92470       13.80299
O         18.81412       28.61353       11.18259
H         19.67474       28.12404       11.18928
H         18.80642       29.08740       10.31275
O         19.95319       31.49188        8.49126
H         20.61241       32.00458        9.02175
H         20.28583       30.56001        8.52233
O         22.71094       29.28219       10.76681
H         23.11171       29.02555        9.89864
H         23.29467       28.85665       11.44353

Ca 1.0



