%chk=apoCaM-CA-Ng.loop2.water5.frame123.chk
%nprocshared=20
%mem=10GB
%nosave
#b3lyp/svp scf=(tight,noincore,xqc) Test 
#IOP(5/87=12) Density=Current Pop=(MK,readradii) iop(6/33=2) iop(6/42=6)

apoCaM-CA-Ng.loop2.water5.frame123 

   -2  1 
C         45.19918       29.22174       98.84946
C         45.85198       27.87426       98.96700
O         46.82543       27.62805       98.26898
H         44.32994       29.31350       99.53486
H         45.93326       30.01461       99.10435
H         44.84439       29.37508       97.80874
N         45.37334       26.94517       99.84368
C         45.99053       25.63211      100.02306
C         45.88593       24.72387       98.79812
O         46.44264       23.63949       98.86090
C         45.40074       24.90299      101.25524
C         43.96638       24.47019      101.07884
O         43.65322       23.16115      101.13013
O         43.08149       25.29121      100.90126
H         44.57821       27.21164      100.44263
H         47.06825       25.80470      100.24209
H         45.48488       25.55607      102.15046
H         46.01348       23.99510      101.45054
N         45.17567       25.07104       97.68067
C         45.00375       24.23960       96.48988
C         46.32266       23.99359       95.71414
O         46.92713       25.22285       95.43319
C         44.22239       22.95627       96.80374
H         44.68859       25.97681       97.65865
H         44.36257       24.81059       95.78054
H         44.74419       22.30255       97.52911
H         43.23665       23.22253       97.24136
H         44.04597       22.38317       95.86846
N         47.29296       23.11501       96.37867
C         48.36554       22.67647       95.45906
C         49.73327       22.89485       96.08456
O         50.71714       22.56929       95.43251
C         48.20835       21.18297       95.07256
C         46.88711       20.89025       94.41893
O         46.04114       20.00509       94.97979
O         46.57929       21.43808       93.37343
H         46.83204       22.28259       96.80829
H         48.35531       23.27706       94.51972
H         48.30834       20.55506       95.98546
H         49.01544       20.89085       94.36527
N         49.89697       23.45103       97.32609
C         51.21272       23.63991       97.91953
C         52.10158       24.58988       97.13594
O         53.28983       24.62772       97.42096
H         49.07980       23.72791       97.88811
H         51.70521       22.64412       97.96328
H         51.11997       24.01824       98.96054
N         51.61247       25.37378       96.13075
C         52.45994       26.18627       95.26287
C         53.24169       27.21682       96.04788
O         52.63778       28.06172       96.69553
C         51.60890       26.90016       94.19043
C         50.83847       25.91812       93.34415
N         51.48044       25.00447       92.57984
O         49.61784       25.94847       93.35267
H         50.59929       25.36857       95.94708
H         53.17318       25.50874       94.74549
H         52.26317       27.50540       93.52610
H         50.89407       27.59050       94.69375
H         52.50928       24.96548       92.55357
H         50.94630       24.33456       92.00757
N         54.60698       27.20303       96.03034
C         55.40607       28.17830       96.74978
C         55.25729       29.57011       96.17925
O         54.62865       29.74926       95.14393
H         55.10142       26.46343       95.50898
H         56.48176       27.90354       96.69696
H         55.09789       28.16884       97.81777
N         55.81142       30.62472       96.84142
C         55.70332       32.01282       96.38727
C         54.25717       32.53557       96.34558
O         54.07024       33.66243       95.91376
C         56.59540       32.95480       97.24907
C         56.14996       33.07519       98.71849
O         57.94768       32.57104       97.16051
H         56.34205       30.41173       97.69848
H         56.10392       32.05875       95.34964
H         56.53076       33.97847       96.81994
H         58.10638       31.81434       97.78227
H         56.17627       32.09553       99.23848
H         56.82467       33.77393       99.25666
H         55.12275       33.48448       98.77635
N         53.19349       31.78149       96.75886
C         51.79550       32.21532       96.70075
C         51.03025       31.34135       95.70947
O         51.62947       30.44419       95.13390
C         51.16675       32.17634       98.13114
C         51.14473       30.73810       98.72877
C         51.91228       33.16113       99.04924
C         50.44823       30.63864      100.08558
H         53.35996       30.83938       97.12060
H         51.72401       33.25695       96.31774
H         50.11752       32.53357       98.05231
H         52.17326       30.34360       98.85973
H         50.60005       30.06652       98.03114
H         51.92165       34.17586       98.59745
H         51.41517       33.25016      100.03542
H         52.95712       32.82851       99.21130
H         49.40269       31.00295      100.01273
H         50.43544       29.57660      100.41120
H         50.99318       31.21462      100.86086
N         49.69731       31.54300       95.46034
C         48.93435       30.69465       94.54595
C         48.31680       31.52767       93.42236
O         47.11457       31.48234       93.20241
C         47.89615       29.89266       95.36209
C         47.18518       28.82242       94.57356
O         46.25132       28.06831       95.18203
O         47.45460       28.61245       93.40088
H         49.19889       32.29820       95.95325
H         49.61014       29.95541       94.06362
H         47.15061       30.59176       95.79908
H         48.42187       29.37930       96.19710
N         49.12530       32.30753       92.65351
C         48.68852       33.06848       91.47959
C         47.48879       33.97505       91.75474
O         47.50069       34.68345       92.75155
C         49.89047       33.83247       90.86511
C         50.62780       34.73298       91.83792
C         50.07971       35.94706       92.28865
C         51.89877       34.34729       92.30523
C         50.77764       36.74113       93.20509
C         52.59102       35.14233       93.21998
C         52.02962       36.33627       93.67430
H         50.12349       32.32957       92.90728
H         48.38189       32.32875       90.71342
H         49.59024       34.40261       89.95932
H         50.59417       33.04330       90.51913
H         49.11942       36.28920       91.93043
H         52.35029       33.42022       91.97382
H         50.34785       37.67190       93.55176
H         53.56234       34.82879       93.57725
H         52.56745       36.94909       94.38577
N         46.40764       34.01724       90.90723
C         45.21526       34.83295       91.09697
C         44.51243       34.60770       92.42145
O         44.22508       35.58134       93.10128
C         44.29311       34.41187       89.94280
C         45.29077       34.11679       88.85346
C         46.35551       33.33960       89.62192
H         45.49937       35.90482       90.98280
H         43.79522       33.44278       90.17470
H         43.50883       35.15610       89.68569
H         44.88865       33.59363       87.96011
H         45.72607       35.09128       88.52942
H         46.07011       32.27787       89.78708
H         47.30153       33.41846       89.04399
N         44.19374       33.34614       92.84685
C         43.44745       33.09913       94.08291
C         44.16361       33.62126       95.32274
O         43.53039       33.69140       96.36843
C         43.16257       31.59360       94.29141
C         42.29658       30.96774       93.18814
C         42.02564       29.52108       93.49420
O         42.94810       28.72734       93.58852
O         40.76111       29.09237       93.66805
H         44.47279       32.54843       92.25862
H         42.47859       33.64111       93.99810
H         42.61783       31.46488       95.25377
H         44.13115       31.04890       94.36341
H         42.79950       31.03031       92.20119
H         41.33054       31.51404       93.12724
N         45.47255       33.99196       95.30184
C         46.14457       34.52740       96.46291
H         47.20475       34.74831       96.21464
H         45.65088       35.47137       96.77859
H         46.11544       33.79187       97.29351
H         46.02273       33.88376       94.44450
Ca        46.69332       25.53049       93.18994
O         44.06386       24.42466       92.19985
H         44.54326       23.57423       92.36609
H         43.98453       24.84310       93.09395
O         48.21590       23.34426       91.32071
H         47.30079       23.34336       91.69774
H         48.77647       22.93741       92.02796
O         49.21366       26.95721       90.64566
H         49.41370       27.89324       90.89837
H         49.93290       26.70856       90.01238
O         45.04217       27.67842       91.41939
H         45.29679       28.45605       90.86232
H         45.15287       27.99485       92.35004
O         46.66915       25.65391       89.76360
H         45.87411       25.84199       89.20464
H         47.36565       25.37181       89.11879

Ca 1.0



