%chk=apoCaM-CA-Ng.loop3.water7.frame1127.chk
%nprocshared=20
%mem=10GB
%nosave
#b3lyp/svp scf=(tight,noincore,xqc) Test 
#IOP(5/87=12) Density=Current Pop=(MK,readradii) iop(6/33=2) iop(6/42=6)

apoCaM-CA-Ng.loop3.water7.frame1127 

   0  1 
C         66.85263       86.03261       63.57918
C         65.63353       86.46904       64.33712
O         64.53941       86.32502       63.81259
H         67.77989       86.21373       64.16228
H         66.78022       84.94638       63.35916
H         66.91857       86.59332       62.62337
N         65.74831       87.01875       65.58041
C         64.60571       87.44911       66.38041
C         64.62707       88.95016       66.61565
O         63.99122       89.41168       67.55288
C         64.52485       86.64306       67.69709
C         65.64438       86.90715       68.66788
O         66.80135       86.65385       68.37552
O         65.36187       87.39585       69.89091
H         66.69184       87.14876       65.97284
H         63.65370       87.23808       65.84649
H         64.49947       85.55910       67.45912
H         63.56856       86.89776       68.20257
N         65.25358       89.78528       65.73395
C         65.22235       91.24168       65.81338
C         63.77896       91.71457       65.75598
O         63.34397       92.47785       66.60839
C         65.96865       91.75501       67.06545
C         67.41243       91.22874       67.13236
C         68.18000       91.72978       68.36994
C         67.55234       91.35373       69.72874
N         67.41922       89.90705       69.90201
H         65.74147       89.38373       64.91980
H         65.74443       91.64136       64.91462
H         65.41604       91.42606       67.96706
H         65.98471       92.86721       67.05255
H         67.96093       91.56101       66.22419
H         67.41276       90.11850       67.13049
H         68.26082       92.83694       68.31926
H         69.20919       91.31145       68.32797
H         66.55835       91.83531       69.84703
H         68.20436       91.75589       70.53475
H         67.04119       89.71141       70.85709
H         66.74772       89.52064       69.20293
H         68.34961       89.44068       69.80214
N         62.96175       91.22343       64.78241
C         61.53992       91.53333       64.68111
C         60.71982       90.28535       64.97940
O         59.86953       89.89555       64.18973
C         61.23591       92.16203       63.29927
C         61.55315       91.27293       62.11644
O         61.41769       91.74723       60.86814
O         61.95340       90.12867       62.26359
H         63.36789       90.55298       64.11561
H         61.25522       92.28085       65.45413
H         61.84654       93.08609       63.20626
H         60.16460       92.45443       63.24880
N         60.92682       89.61283       66.14390
C         60.14063       88.45051       66.52720
C         60.56799       87.94776       67.89243
O         60.64045       88.77678       68.78957
H         61.65298       89.96410       66.78471
H         60.20819       87.68000       65.74033
H         59.07886       88.76930       66.60534
N         60.81987       86.64090       68.20842
C         60.60535       85.46364       67.36784
C         61.66585       84.41573       67.68598
O         61.79152       84.07237       68.85381
C         59.21578       84.89193       67.73020
C         58.90051       83.58925       67.03482
N         58.81859       83.51742       65.68728
O         58.71139       82.58456       67.70477
H         61.02121       86.45661       69.20508
H         60.61101       85.70539       66.29288
H         58.43274       85.63817       67.47492
H         59.17361       84.72374       68.83051
H         58.96533       84.35287       65.10366
H         58.60545       82.62002       65.22671
N         62.44420       83.79958       66.75029
C         62.41719       84.05409       65.31083
C         63.33792       83.10464       64.55389
O         63.93389       82.23449       65.17892
H         63.08691       83.08321       67.12127
H         62.72861       85.09983       65.12507
H         61.39035       83.90796       64.91895
N         63.48510       83.17128       63.19397
C         64.32994       82.20488       62.48946
C         65.14688       82.81516       61.35614
O         64.82084       83.88788       60.86383
C         63.46784       81.01611       62.00641
C         64.31218       79.85941       61.53104
C         64.26995       79.43677       60.19332
C         65.16613       79.20001       62.43356
C         65.08614       78.38571       59.76161
C         65.98031       78.15277       62.00056
C         65.94741       77.74488       60.66036
O         66.74322       76.74778       60.22539
H         62.93511       83.86181       62.65840
H         65.08081       81.82717       63.21500
H         62.78085       81.37621       61.20896
H         62.84027       80.64373       62.84594
H         63.61897       79.92891       59.48182
H         65.20931       79.50397       63.47215
H         65.05756       78.07658       58.72478
H         66.64059       77.66550       62.70686
H         67.36795       76.29763       60.81209
N         66.27446       82.17063       60.93062
C         67.16157       82.65992       59.87359
C         66.48036       82.56274       58.51308
O         65.44176       81.92150       58.42011
C         68.51151       81.86402       59.93054
C         68.33598       80.38860       59.47150
C         69.64727       82.55927       59.16221
C         69.54583       79.50238       59.76718
H         66.54973       81.32295       61.44511
H         67.37609       83.72513       60.11241
H         68.82045       81.87671       61.00033
H         68.11314       80.35188       58.38253
H         67.48073       79.93287       60.00197
H         69.73447       83.61749       59.48818
H         70.61938       82.07531       59.38683
H         69.49402       82.51431       58.06687
H         69.32623       78.46251       59.44404
H         70.44715       79.84318       59.22058
H         69.75231       79.49458       60.85856
N         66.98593       83.20149       57.41740
C         66.33262       83.13752       56.11468
C         65.50509       84.37822       55.88751
O         65.61009       85.32972       56.64845
C         67.36544       82.95860       54.98490
O         68.23510       84.06086       54.95062
H         67.79427       83.82937       57.53161
H         65.63237       82.27369       56.08661
H         66.82601       82.87012       54.01237
H         67.95374       82.03019       55.14629
H         68.60194       84.11391       54.02959
N         64.62768       84.40975       54.84650
C         63.80457       85.55305       54.48802
C         64.68689       86.69516       54.03036
O         64.55626       87.80947       54.51984
C         62.83797       85.93169       55.62402
H         64.54071       83.57005       54.25340
H         63.18548       85.25891       53.61230
H         62.21341       85.05626       55.90069
H         63.37552       86.27825       56.53116
H         62.16731       86.74917       55.28932
N         65.63932       86.45563       53.07729
C         66.53518       87.45744       52.50626
C         67.47098       88.11953       53.51609
O         68.21922       88.99793       53.10835
C         65.71235       88.51199       51.75268
H         65.72624       85.49588       52.70844
H         67.17848       86.95237       51.75133
H         66.38391       89.21920       51.22176
H         65.06961       88.01381       50.99557
H         65.06671       89.09488       52.44070
N         67.48674       87.78314       54.83913
C         68.27946       88.50421       55.82474
C         69.76211       88.31132       55.57098
O         70.46906       89.29628       55.41051
C         67.89592       88.04493       57.25322
C         68.51040       88.88921       58.38768
C         67.96962       90.29771       58.45122
O         67.27889       90.69895       59.53502
O         68.17343       91.09299       57.54877
H         66.88305       87.02752       55.17964
H         68.01113       89.57489       55.73487
H         68.20526       86.98484       57.38482
H         66.78989       88.08473       57.37083
H         69.61740       88.91172       58.30677
H         68.25002       88.39020       59.34600
N         70.29373       87.05697       55.51294
C         71.70102       86.78931       55.29383
H         72.30575       87.71831       55.23288
H         72.09040       86.17477       56.13256
H         71.82689       86.22263       54.34744
H         69.67062       86.24300       55.61684
Ca        62.16628       90.36873       59.24798
O         64.31283       91.04765       57.33172
H         63.90302       90.55623       56.57614
H         64.66620       91.87953       56.92815
O         61.52504       88.56521       57.08635
H         61.36518       87.79139       57.68300
H         60.63409       88.98187       56.97652
O         62.65819       87.15370       60.15287
H         63.39706       86.82129       59.58359
H         62.05609       86.37479       60.25646
O         59.80631       88.83123       60.21009
H         59.51488       88.74553       61.15233
H         59.14988       88.29998       59.69378
O         65.31988       88.65176       60.66671
H         64.91453       89.24985       59.98954
H         65.72700       87.92057       60.13738
O         64.43070       92.02202       60.62293
H         65.01310       92.22676       61.39662
H         64.96996       92.26834       59.83026
O         60.76684       92.27711       57.53052
H         60.15302       91.50133       57.57848
H         61.44161       92.01739       56.85384

Ca 1.0



