%chk=apoCaM-CA-Ng.loop2.water3.frame555.chk
%nprocshared=20
%mem=10GB
%nosave
#b3lyp/svp scf=(tight,noincore,xqc) Test 
#IOP(5/87=12) Density=Current Pop=(MK,readradii) iop(6/33=2) iop(6/42=6)

apoCaM-CA-Ng.loop2.water3.frame555 

   -2  1 
C         51.29447       45.91785       84.12126
C         50.51827       46.50147       82.97660
O         49.92845       47.55853       83.14804
H         52.08619       46.63104       84.43375
H         50.61291       45.73535       84.97842
H         51.77568       44.95777       83.84013
N         50.47074       45.86640       81.77025
C         49.73633       46.39867       80.62675
C         50.31076       47.74602       80.22784
O         51.45608       47.80309       79.80737
C         49.80505       45.40378       79.44752
C         49.08695       45.90805       78.22693
O         49.69499       46.06142       77.17946
O         47.77130       46.18839       78.28034
H         50.96947       44.96840       81.66945
H         48.66924       46.51346       80.92170
H         49.34411       44.44063       79.75714
H         50.87074       45.20696       79.19185
N         49.56198       48.88011       80.33696
C         50.08869       50.20252       80.00779
C         51.21246       50.59830       80.96033
O         51.25414       50.05331       82.05482
C         48.95728       51.23666       80.08493
H         48.58559       48.79462       80.65985
H         50.46255       50.15729       78.97619
H         48.14459       50.95375       79.38297
H         48.54163       51.27348       81.11509
H         49.29731       52.25294       79.81560
N         52.14539       51.56132       80.68112
C         52.27143       52.29548       79.42121
C         52.67627       51.36804       78.28003
O         53.69786       50.70714       78.37448
C         53.22536       53.50800       79.59089
C         54.64666       53.19243       79.96890
O         55.39121       52.64994       79.17131
O         55.12841       53.58470       81.16468
H         52.81254       51.78787       81.43624
H         51.29970       52.76411       79.18089
H         52.79496       54.14511       80.39502
H         53.23832       54.11328       78.65927
N         51.88838       51.25592       77.17226
C         52.16228       50.35462       76.05826
C         51.02584       49.36333       75.88427
O         50.10026       49.38182       76.68232
H         51.03397       51.83064       77.11313
H         53.10857       49.79080       76.20588
H         52.25935       50.96765       75.13922
N         50.97334       48.45549       74.86862
C         51.95260       48.29886       73.79933
C         52.51212       46.87641       73.79790
O         52.95927       46.40660       72.76074
C         51.24529       48.61921       72.46270
C         50.77047       50.05164       72.41310
N         51.65773       51.07406       72.43884
O         49.57444       50.29048       72.33802
H         50.15060       47.83156       74.83430
H         52.81416       48.98876       73.90989
H         50.37678       47.93232       72.34355
H         51.93099       48.45976       71.60353
H         52.67091       50.89259       72.48517
H         51.33301       52.05164       72.40265
N         52.56209       46.14797       74.94921
C         53.07989       44.79227       75.04804
C         54.53836       44.67899       74.65854
O         54.88168       43.77432       73.91168
H         52.21455       46.56824       75.82344
H         52.46048       44.09405       74.44264
H         52.99676       44.47686       76.11066
N         55.45212       45.57314       75.12836
C         56.89219       45.49578       74.86784
C         57.65310       45.61599       76.18545
O         57.01006       45.68798       77.22408
C         57.30272       46.58197       73.84759
C         56.65310       46.32082       72.48380
O         56.93950       47.86060       74.29800
H         55.10691       46.37117       75.68286
H         57.16512       44.51354       74.42157
H         58.40006       46.53659       73.66250
H         57.65359       48.15876       74.91904
H         56.99475       47.07588       71.74600
H         56.93972       45.31354       72.10807
H         55.54863       46.37130       72.55156
N         59.02407       45.63681       76.22974
C         59.75944       45.68083       77.49293
C         60.51711       47.00081       77.65029
O         61.42522       47.29829       76.88861
C         60.69061       44.44665       77.65319
C         61.39402       44.49346       79.04055
C         59.86836       43.14999       77.49939
C         62.39867       43.36669       79.27515
H         59.56481       45.59969       75.35403
H         59.04153       45.60502       78.33040
H         61.46128       44.47317       76.85137
H         60.63442       44.47194       79.85280
H         61.96193       45.44236       79.13062
H         59.37056       43.11395       76.50801
H         60.51446       42.25227       77.55562
H         59.08871       43.08561       78.28956
H         63.18302       43.38342       78.48967
H         62.88267       43.51167       80.26446
H         61.90367       42.37550       79.28926
N         60.17982       47.80812       78.69417
C         60.82129       49.03827       79.12820
C         61.30916       48.90593       80.58649
O         61.86842       49.86673       81.09681
C         59.82129       50.22220       79.01956
C         58.60523       50.04993       79.94256
O         57.74522       49.04798       79.48717
O         57.83984       51.21295       80.04463
H         59.40618       47.50262       79.26785
H         61.69559       49.26248       78.47811
H         59.48867       50.36329       77.96801
H         60.35512       51.14733       79.32920
N         61.14584       47.75145       81.31076
C         61.61398       47.55086       82.67994
C         60.49491       47.00302       83.57278
O         60.65089       45.90435       84.09121
C         62.80008       46.55711       82.61965
C         64.03722       47.21915       82.08023
C         64.54401       46.90720       80.80940
C         64.71043       48.15717       82.88163
C         65.70581       47.53565       80.34707
C         65.87640       48.77013       82.42326
C         66.37318       48.46240       81.15508
H         60.72402       46.92371       80.87003
H         61.96804       48.49542       83.14591
H         62.49668       45.68069       82.00235
H         63.06851       46.17133       83.62754
H         64.03946       46.19002       80.17578
H         64.33874       48.39868       83.87058
H         66.09211       47.30210       79.36396
H         66.39417       49.48071       83.05453
H         67.27643       48.94115       80.80122
N         59.34848       47.70102       83.85578
C         58.32961       47.23029       84.79032
C         57.74376       45.85932       84.48570
O         57.07146       45.31018       85.34719
C         57.23555       48.29820       84.70137
C         58.04972       49.54525       84.43221
C         59.06381       49.04425       83.40342
H         58.81302       47.20878       85.79353
H         56.62376       48.11813       83.78635
H         56.55608       48.34270       85.57949
H         57.47227       50.43753       84.11341
H         58.59248       49.79261       85.37352
H         58.62295       48.98100       82.38864
H         59.94604       49.71829       83.41945
N         57.93150       45.25610       83.27790
C         57.46582       43.90831       82.97995
C         58.37609       42.94100       83.69744
O         57.90293       42.16686       84.51704
C         57.48627       43.60891       81.45730
C         56.42786       44.39123       80.65913
C         56.64501       45.86253       80.73363
O         55.80923       46.59392       81.22402
O         57.79616       46.37912       80.30805
H         58.44855       45.76302       82.55179
H         56.41207       43.78116       83.31846
H         57.25012       42.53283       81.30843
H         58.49662       43.79489       81.03225
H         55.41381       44.14393       81.03954
H         56.48429       44.08993       79.59084
N         59.71534       42.95573       83.43793
C         60.67366       42.09117       84.09002
H         61.41874       42.71627       84.62601
H         60.19595       41.40593       84.82006
H         61.19956       41.48601       83.32265
H         60.08708       43.62549       82.74723
Ca        55.84728       50.09320       80.08392
O         54.35721       47.82540       78.30348
H         55.29736       47.56247       78.14097
H         53.86305       47.49303       77.51316
O         55.01033       50.30489       82.92247
H         54.18004       49.97840       83.35053
H         55.16796       51.19166       83.33189
O         53.58196       47.83508       81.33306
H         53.33473       48.77489       81.49927
H         53.39234       47.36219       82.18090

Ca 1.0



