%chk=apoCaM-CA-Ng.loop2.water2.frame844.chk
%nprocshared=20
%mem=10GB
%nosave
#b3lyp/svp scf=(tight,noincore,xqc) Test 
#IOP(5/87=12) Density=Current Pop=(MK,readradii) iop(6/33=2) iop(6/42=6)

apoCaM-CA-Ng.loop2.water2.frame844 

   -2  1 
C         57.25299      -13.73537       95.31506
C         55.97710      -14.31171       94.77562
O         54.97572      -14.28127       95.47688
H         58.07936      -13.81634       94.57797
H         57.09969      -12.66189       95.55435
H         57.54587      -14.27623       96.23880
N         55.93413      -14.85596       93.52650
C         54.71278      -15.40082       92.94542
C         53.67463      -14.29979       92.82939
O         52.59976      -14.43076       93.39680
C         55.01292      -16.02884       91.56585
C         53.79367      -16.66841       90.96164
O         53.37002      -16.28678       89.88239
O         53.17063      -17.67559       91.60319
H         56.80300      -14.87889       92.96981
H         54.33338      -16.21148       93.60857
H         55.78896      -16.81552       91.68484
H         55.41635      -15.25819       90.87298
N         53.95230      -13.17564       92.11056
C         53.03551      -12.04935       91.96815
C         53.64901      -11.03625       91.00789
O         54.73776      -10.56102       91.30234
C         52.77720      -11.37123       93.32343
H         54.86655      -13.12858       91.63441
H         52.07410      -12.43587       91.58472
H         52.29695      -12.06754       94.03940
H         53.72874      -11.01100       93.76947
H         52.09523      -10.50436       93.19336
N         53.08082      -10.66580       89.82156
C         51.76395      -11.08920       89.34002
C         51.63288      -10.92090       87.82413
O         52.57408      -10.47212       87.18845
C         50.64835      -10.37767       90.14821
C         50.72965       -8.87615       90.11551
O         49.76930       -8.22595       89.74113
O         51.82441       -8.23788       90.57543
H         53.63918      -10.02845       89.23316
H         51.66961      -12.18721       89.46999
H         50.71734      -10.66829       91.21324
H         49.65153      -10.70765       89.78779
N         50.53106      -11.39108       87.16437
C         50.43733      -11.46246       85.70769
C         49.11124      -10.95563       85.17317
O         48.33560      -11.77840       84.70766
H         49.77634      -11.83090       87.71255
H         50.49976      -12.54179       85.44910
H         51.28035      -10.95897       85.19169
N         48.73361       -9.64708       85.18516
C         49.55225       -8.55939       85.68647
C         50.60870       -8.12494       84.67739
O         50.25770       -7.70819       83.58213
C         48.64310       -7.37506       86.06322
C         49.44188       -6.23344       86.67775
N         48.52742       -5.27793       87.30293
O         50.31404       -6.77654       87.62407
H         47.77822       -9.42674       84.85825
H         50.02402       -8.89959       86.63026
H         47.91210       -7.74087       86.81901
H         48.07988       -6.99430       85.18323
H         47.83857       -4.94626       86.59144
H         49.06081       -4.43059       87.59239
N         51.93280       -8.18064       85.00034
C         53.00525       -7.77875       84.10528
C         53.24609       -6.27979       84.06675
O         54.10159       -5.86466       83.29833
H         52.20204       -8.55692       85.91339
H         52.80934       -8.18515       83.08927
H         53.95582       -8.23217       84.46178
N         52.57020       -5.40956       84.87384
C         52.77536       -3.96284       84.86312
C         53.21788       -3.47091       86.23569
O         52.52415       -3.70115       87.21373
C         51.47731       -3.24601       84.42250
C         51.15959       -3.52531       82.95332
O         50.38374       -3.65600       85.20116
H         51.86925       -5.77631       85.52981
H         53.56122       -3.67474       84.13063
H         51.61934       -2.14138       84.50261
H         50.35658       -3.06996       85.99808
H         50.23710       -2.98029       82.66079
H         51.99273       -3.17001       82.30922
H         51.00362       -4.61070       82.77967
N         54.36714       -2.74754       86.36750
C         54.82066       -2.16343       87.63255
C         53.79804       -1.13042       88.09232
O         53.52086       -0.21191       87.33326
C         56.22702       -1.49851       87.45048
C         56.72593       -0.73285       88.70961
C         57.28338       -2.53325       87.00571
C         56.91257       -1.59019       89.96309
H         54.92310       -2.57597       85.51717
H         54.92289       -2.96982       88.39069
H         56.14779       -0.73871       86.64030
H         56.01446        0.08480       88.95323
H         57.70030       -0.25224       88.47077
H         57.01704       -3.00669       86.04010
H         58.26729       -2.03822       86.86138
H         57.39378       -3.34399       87.75442
H         57.27547       -0.95074       90.79511
H         55.95022       -2.03873       90.27011
H         57.66205       -2.39082       89.80018
N         53.21583       -1.20644       89.32876
C         52.20972       -0.24496       89.79589
C         52.73676        0.60609       90.91984
O         52.22872        1.70754       91.08796
C         50.93723       -0.93017       90.32184
C         50.59905       -2.13375       89.53455
O         50.32529       -2.07272       88.34709
O         50.73098       -3.31209       90.15922
H         53.49560       -1.97158       89.95572
H         51.91841        0.41921       88.95272
H         50.08455       -0.21808       90.37619
H         51.13247       -1.30018       91.35395
N         53.66806        0.13298       91.80398
C         54.16185        0.94720       92.89857
C         55.04559        0.13192       93.84385
O         56.16005       -0.19378       93.45683
C         54.97197        2.11925       92.29563
C         55.58046        3.02676       93.32230
C         56.97735        3.13580       93.41483
C         54.76676        3.78520       94.17662
C         57.55343        3.99464       94.35072
C         55.34767        4.64752       95.11008
C         56.73966        4.75247       95.19660
H         54.02578       -0.82860       91.71420
H         53.28528        1.33031       93.45950
H         54.34377        2.74144       91.62761
H         55.77187        1.67852       91.65809
H         57.62030        2.55720       92.76186
H         53.68773        3.71558       94.11154
H         58.63060        4.07386       94.41497
H         54.71854        5.23740       95.76284
H         57.18864        5.42215       95.91700
N         54.64740       -0.21170       95.11136
C         55.53000       -0.79595       96.11262
C         55.96209       -2.22589       95.83730
O         56.76489       -2.72463       96.61473
C         54.73394       -0.65931       97.41703
C         53.30969       -0.81087       96.93177
C         53.32612        0.03030       95.65665
H         56.45753       -0.18856       96.20888
H         55.04422       -1.33185       98.24588
H         54.82754        0.39228       97.77323
H         53.16803       -1.87994       96.65014
H         52.51892       -0.52744       97.65867
H         52.51010       -0.32475       94.99011
H         53.22144        1.11737       95.86646
N         55.52135       -2.94741       94.76547
C         56.05529       -4.27870       94.47842
C         57.55072       -4.23422       94.17983
O         58.20504       -5.25641       94.33342
C         55.28718       -4.98985       93.34348
C         55.33187       -4.25740       91.99142
C         54.53424       -5.00815       90.96593
O         53.45098       -4.44078       90.40693
O         54.85730       -6.13830       90.63904
H         54.79729       -2.54675       94.15696
H         55.91012       -4.89447       95.39514
H         54.22504       -5.09300       93.65565
H         55.70771       -6.01277       93.21663
H         56.37845       -4.15447       91.63392
H         54.89631       -3.24332       92.09393
N         58.15511       -3.08907       93.74666
C         59.57692       -2.96995       93.49830
H         60.13061       -3.90090       93.73945
H         59.74703       -2.71774       92.43081
H         59.98489       -2.15029       94.12740
H         57.58861       -2.24983       93.57080
Ca        50.88015       -5.17014       89.02142
O         53.74420       -7.25806       87.91082
H         54.51112       -7.77009       88.27136
H         52.95255       -7.80515       88.14165
O         50.61341       -5.54659       92.01126
H         50.01842       -4.78225       92.21685
H         50.28182       -6.28009       92.58623

Ca 1.0



