%chk=apoCaM-CA-Ng.loop3.water7.frame1093.chk
%nprocshared=20
%mem=10GB
%nosave
#b3lyp/svp scf=(tight,noincore,xqc) Test 
#IOP(5/87=12) Density=Current Pop=(MK,readradii) iop(6/33=2) iop(6/42=6)

apoCaM-CA-Ng.loop3.water7.frame1093 

   0  1 
C         41.73293       81.87205       13.01495
C         42.95492       81.84856       12.14502
O         43.07544       82.70417       11.28287
H         40.82527       81.77483       12.38441
H         41.74331       81.04243       13.75304
H         41.69306       82.83404       13.56839
N         43.91253       80.89740       12.32545
C         45.14281       80.82813       11.54234
C         45.27644       79.52270       10.76233
O         46.29495       79.36694       10.10292
C         46.37768       81.12270       12.42984
C         46.59494       80.21891       13.61223
O         47.67006       80.41445       14.39867
O         45.80798       79.33206       13.88899
H         43.76163       80.19919       13.06630
H         45.15742       81.62871       10.77974
H         46.28861       82.15971       12.81955
H         47.28795       81.08635       11.79139
N         44.28341       78.57656       10.71400
C         44.36023       77.36531        9.89151
C         44.57554       77.75188        8.43490
O         45.56937       77.35277        7.84124
C         45.46371       76.41129       10.41591
C         45.12541       75.84061       11.80394
C         46.22690       74.89740       12.33390
C         47.53527       75.59831       12.75715
N         47.35122       76.41417       13.95769
H         43.40694       78.73135       11.23162
H         43.38997       76.82288        9.94334
H         46.43656       76.93901       10.43100
H         45.55839       75.54837        9.71941
H         44.19232       75.24620       11.69231
H         44.91430       76.64854       12.53232
H         46.45351       74.14819       11.54462
H         45.83964       74.34507       13.21679
H         47.94519       76.21775       11.93189
H         48.29077       74.81695       12.98977
H         46.64458       77.15268       13.78575
H         47.03590       75.81698       14.75642
H         48.25502       76.87333       14.21284
N         43.69880       78.59875        7.82009
C         43.95935       79.17222        6.50185
C         44.52170       80.58041        6.65260
O         45.10830       81.08710        5.70621
C         42.68724       79.19054        5.63579
C         42.05209       77.83441        5.51913
O         40.79538       77.64306        5.96595
O         42.66242       76.90506        5.01632
H         42.88960       78.94342        8.35924
H         44.73969       78.56895        5.98585
H         42.93097       79.56724        4.61820
H         41.95053       79.88653        6.09451
N         44.38233       81.27232        7.82174
C         44.97568       82.56665        8.09078
C         46.46555       82.45165        8.33884
O         47.02897       81.38949        8.11416
H         43.81925       80.88193        8.58747
H         44.52626       82.93216        9.03528
H         44.73354       83.30000        7.29268
N         47.19676       83.47751        8.85903
C         46.67262       84.78748        9.22961
C         46.85684       84.99223       10.72895
O         47.96597       84.79039       11.20644
C         47.40259       85.86100        8.40740
C         46.87056       87.24322        8.70229
N         46.16405       87.92376        7.77082
O         47.06793       87.74908        9.79727
H         48.20280       83.30882        9.02530
H         45.60514       84.88294        8.96303
H         47.23010       85.62030        7.33541
H         48.49972       85.83680        8.58682
H         45.96801       87.51001        6.84794
H         45.79007       88.86039        7.98262
N         45.85748       85.41818       11.55981
C         44.52570       85.81257       11.10148
C         43.64861       86.36124       12.21540
O         44.05427       86.35855       13.36785
H         46.09824       85.51919       12.55715
H         44.01158       84.95553       10.62625
H         44.64078       86.62361       10.35314
N         42.42568       86.90090       11.91570
C         41.56615       87.52000       12.92612
C         40.16911       86.89950       12.93776
O         39.78697       86.22753       11.99201
C         41.49237       89.03871       12.63806
C         40.78089       89.82741       13.71167
C         39.59775       90.52722       13.42114
C         41.30396       89.87757       15.01524
C         38.94195       91.25136       14.42181
C         40.64829       90.60352       16.01283
C         39.46216       91.29086       15.71971
O         38.81685       91.99113       16.67408
H         42.12395       86.92655       10.93041
H         42.01460       87.36733       13.93004
H         40.99854       89.18383       11.65121
H         42.52325       89.44803       12.55514
H         39.17840       90.50934       12.42307
H         42.22007       89.35498       15.25948
H         38.02767       91.78213       14.18790
H         41.06316       90.63002       17.01247
H         39.14259       92.04051       17.58425
N         39.36387       87.07694       14.02738
C         37.99463       86.55991       14.13603
C         37.02005       87.30953       13.22842
O         37.40606       88.28090       12.59190
C         37.49309       86.57128       15.62394
C         38.21722       85.46098       16.42336
C         37.59911       87.95740       16.30344
C         37.68007       85.27702       17.84349
H         39.78071       87.56167       14.82874
H         37.98724       85.50139       13.79437
H         36.41920       86.29216       15.62642
H         39.31109       85.64910       16.46229
H         38.05055       84.49606       15.89390
H         37.09869       87.94546       17.29295
H         38.64926       88.26229       16.48578
H         37.10024       88.73594       15.69100
H         36.58410       85.09386       17.82228
H         38.17328       84.39921       18.31170
H         37.89603       86.16497       18.47071
N         35.71898       86.88961       13.13121
C         34.69959       87.54110       12.30937
C         34.11970       86.57603       11.28072
O         34.46942       85.40420       11.29089
C         33.59394       88.10124       13.21842
O         32.98240       87.06422       13.93722
H         35.42538       86.06324       13.67400
H         35.14756       88.39242       11.75173
H         32.83002       88.63145       12.60879
H         34.05687       88.82752       13.92470
H         32.36575       87.50046       14.58092
N         33.24931       87.03101       10.32745
C         32.71317       86.22841        9.22705
C         31.71810       85.15418        9.65248
O         31.45686       84.26660        8.85541
C         33.85450       85.65228        8.36834
H         32.99985       88.03154       10.33467
H         32.14292       86.90330        8.55157
H         34.45608       84.90175        8.91923
H         33.44340       85.15597        7.46385
H         34.52242       86.47343        8.03222
N         31.06499       85.19500       10.85175
C         30.08764       84.19073       11.28085
C         30.72911       82.81630       11.36571
O         30.08655       81.81897       11.06107
C         28.84478       84.19017       10.36680
H         31.26634       85.96391       11.50730
H         29.74791       84.46176       12.30402
H         28.08116       83.47832       10.74711
H         28.39283       85.20263       10.33357
H         29.09647       83.88418        9.32942
N         32.04211       82.70596       11.70772
C         32.75599       81.44198       11.68010
C         32.25632       80.56150       12.80897
O         31.80479       79.45188       12.56317
C         34.28305       81.69806       11.79472
C         35.15331       80.67273       11.04936
C         35.12099       80.89805        9.55150
O         33.99568       80.73179        8.83159
O         36.13598       81.25898        8.97875
H         32.56958       83.56516       11.91828
H         32.55454       80.97435       10.69657
H         34.56926       81.75397       12.86707
H         34.55425       82.67916       11.34763
H         34.87726       79.62932       11.30835
H         36.20300       80.84266       11.37507
N         32.27460       81.03677       14.08756
C         31.78108       80.28073       15.21655
H         30.71036       80.02639       15.06713
H         32.37630       79.35324       15.34361
H         31.86969       80.89059       16.14241
H         32.63231       81.98778       14.26719
Ca        34.07127       81.14596        6.60831
O         31.85577       79.25023        5.85639
H         30.93119       79.50550        5.61158
H         32.21393       78.80271        5.04894
O         32.92133       81.94635        3.71354
H         31.95988       81.74403        3.83540
H         32.94327       82.88949        3.41351
O         34.81989       78.34091        6.80349
H         35.17471       77.52569        6.36941
H         35.24851       78.35851        7.69576
O         37.25897       81.01344        6.04480
H         37.88045       81.46128        5.41803
H         37.70804       81.08086        6.92399
O         35.35282       83.62040        5.49161
H         35.95877       83.53915        4.71284
H         35.29644       84.59332        5.66449
O         35.14237       79.88958        3.85662
H         35.59666       79.01016        3.86562
H         34.72491       79.94437        2.96047
O         31.40926       82.97556        6.23233
H         31.69027       83.78519        5.73702
H         32.13046       82.83323        6.89396

Ca 1.0



