%chk=apoCaM-CA-Ng.loop3.water3.frame751.chk
%nprocshared=20
%mem=10GB
%nosave
#b3lyp/svp scf=(tight,noincore,xqc) Test 
#IOP(5/87=12) Density=Current Pop=(MK,readradii) iop(6/33=2) iop(6/42=6)

apoCaM-CA-Ng.loop3.water3.frame751 

   0  1 
C          3.07084       22.50601        2.96980
C          3.78749       21.65157        1.96844
O          3.35142       21.58991        0.82716
H          2.03081       22.14112        3.09482
H          3.57852       22.48501        3.95701
H          3.05121       23.55544        2.60740
N          4.91884       20.97668        2.31776
C          5.68767       20.18674        1.36010
C          4.86576       18.97480        0.89068
O          3.78950       18.73342        1.41920
C          7.06090       19.82199        2.00567
C          8.22338       19.50865        1.09074
O          9.43882       19.30161        1.62868
O          8.11885       19.51861       -0.11979
H          5.27076       21.07990        3.28239
H          5.88849       20.85601        0.50344
H          6.91885       19.01111        2.75143
H          7.41995       20.71909        2.55158
N          5.31159       18.18225       -0.11756
C          4.60149       17.03413       -0.67061
C          5.39884       15.77948       -0.34532
O          4.84173       14.83642        0.19900
C          4.44676       17.25678       -2.19419
C          3.53294       16.23607       -2.89484
C          3.44457       16.54644       -4.40102
C          2.44051       15.63533       -5.12284
N          2.40023       15.93391       -6.55620
H          6.20360       18.41553       -0.54816
H          3.58306       16.94421       -0.23067
H          5.44915       17.25845       -2.67258
H          3.99299       18.26101       -2.34990
H          2.51783       16.30366       -2.44511
H          3.91937       15.20355       -2.75426
H          4.45211       16.42123       -4.85544
H          3.11997       17.60063       -4.54513
H          1.42716       15.79219       -4.68970
H          2.72329       14.56946       -4.97971
H          2.13916       16.93478       -6.71321
H          3.33324       15.74310       -6.98896
H          1.68540       15.32471       -7.01619
N          6.74053       15.74944       -0.58776
C          7.63439       14.64099       -0.26554
C          8.59705       14.96767        0.88216
O          9.37663       14.09503        1.23707
C          8.40947       14.22093       -1.53839
C          9.28999       15.30679       -2.12384
O          9.37289       16.51660       -1.53609
O          9.91507       15.09166       -3.14880
H          7.15761       16.58700       -1.00179
H          7.04052       13.76439        0.07633
H          7.66888       13.91917       -2.30992
H          9.04053       13.33575       -1.30730
N          8.57484       16.16082        1.55089
C          9.41095       16.41887        2.71945
C         10.90527       16.53562        2.44568
O         11.64745       16.55525        3.41763
H          7.88119       16.87389        1.29380
H          9.24183       15.59200        3.44363
H          9.08380       17.35205        3.22516
N         11.43026       16.62762        1.18645
C         12.86822       16.61284        0.91033
C         13.34632       17.87377        0.20756
O         12.80496       18.22566       -0.82956
C         13.21270       15.42977       -0.01371
C         12.76418       14.10151        0.53094
N         11.92325       13.32063       -0.18698
O         13.17171       13.71922        1.61742
H         10.79397       16.66885        0.38372
H         13.45044       16.47842        1.84903
H         14.31536       15.39777       -0.15902
H         12.74358       15.59272       -1.00806
H         11.58064       13.62388       -1.11054
H         11.61713       12.40627        0.17469
N         14.45332       18.53041        0.65453
C         15.10918       19.58790       -0.09822
C         14.26315       20.82692       -0.24348
O         13.87828       21.40467        0.76331
H         14.91965       18.20246        1.51400
H         15.40186       19.19120       -1.09627
H         16.04580       19.87567        0.42594
N         13.98771       21.32874       -1.48237
C         13.25572       22.57810       -1.69190
C         11.80658       22.45912       -1.23751
O         11.39386       21.38857       -0.81950
C         13.30868       22.98955       -3.18506
C         14.72278       23.15607       -3.69715
C         15.18833       22.35916       -4.75759
C         15.58527       24.11211       -3.13177
C         16.49157       22.51215       -5.23975
C         16.88965       24.26159       -3.61454
C         17.34753       23.46411       -4.66844
O         18.60694       23.62207       -5.12379
H         14.36194       20.82979       -2.30467
H         13.74716       23.37597       -1.09382
H         12.78382       23.95536       -3.33978
H         12.77690       22.22038       -3.78377
H         14.54336       21.61869       -5.21395
H         15.25077       24.74339       -2.31870
H         16.83408       21.89069       -6.05765
H         17.54515       24.99994       -3.16973
H         18.96129       23.09204       -5.85217
N         10.98274       23.55206       -1.29550
C          9.57398       23.58522       -0.89784
C          8.74500       22.66971       -1.79016
O          8.96104       21.46739       -1.77053
C          9.39712       23.26436        0.61843
C          7.91861       23.33419        1.08237
C         10.28583       24.17447        1.48646
C          7.24508       24.70228        0.94873
H         11.38034       24.43977       -1.63498
H          9.22603       24.62862       -1.05832
H          9.72878       22.22078        0.80488
H          7.86705       23.03178        2.15054
H          7.32621       22.60400        0.49855
H         10.16347       23.91900        2.56059
H         11.35731       24.03402        1.23175
H         10.03609       25.24497        1.33736
H          6.19939       24.62653        1.31498
H          7.76505       25.46619        1.56138
H          7.21042       25.03203       -0.10875
N          7.79536       23.17302       -2.63290
C          7.06027       22.32807       -3.57134
C          6.59197       23.12336       -4.77450
O          5.42670       23.06562       -5.13793
C          5.88771       21.59557       -2.88543
O          6.34425       20.72377       -1.89770
H          7.67318       24.19717       -2.68279
H          7.76119       21.58011       -4.00491
H          5.29002       21.01742       -3.62837
H          5.19810       22.33357       -2.42174
H          6.65501       19.90687       -2.36744
N          7.50037       23.86077       -5.47404
C          7.19914       24.50209       -6.74843
C          8.23352       24.06569       -7.78630
O          9.30183       23.62740       -7.38774
C          7.21179       26.01345       -6.56760
H          8.45616       23.94635       -5.09804
H          6.18667       24.19654       -7.08316
H          8.20674       26.36285       -6.22024
H          6.96745       26.50291       -7.52352
H          6.44412       26.30793       -5.81961
N          8.00948       24.06449       -9.13497
C          6.77621       24.44201       -9.80796
C          7.08769       25.25584      -11.06335
O          7.87433       24.76747      -11.86733
C          6.05431       23.15840      -10.22952
H          8.75620       23.65825       -9.72353
H          6.09730       24.97444       -9.12301
H          5.81634       22.54803       -9.33192
H          5.10403       23.40380      -10.74949
H          6.68993       22.54822      -10.90800
N          6.51636       26.45652      -11.37974
C          5.50634       27.14735      -10.58122
C          6.12767       28.02650       -9.51018
O          5.38583       28.53467       -8.67618
C          4.52558       27.97489      -11.45819
C          5.07165       29.27914      -12.08552
C          6.10998       29.07328      -13.14707
O          7.34165       29.59709      -12.99718
O          5.84032       28.44210      -14.15686
H          6.77380       26.84836      -12.29187
H          4.86070       26.37791      -10.11169
H          3.68969       28.28811      -10.79331
H          4.08530       27.32488      -12.24562
H          5.47765       29.93379      -11.28506
H          4.22304       29.81924      -12.55744
N          7.46331       28.29517       -9.48052
C          8.04995       29.17081       -8.48964
H          9.14016       29.27485       -8.67324
H          7.58319       30.17731       -8.54993
H          7.89835       28.75599       -7.47190
H          8.09259       27.89556      -10.19313
Ca        10.42913       18.34689       -2.31248
O         12.86825       17.19688       -3.64921
H         12.27507       16.50846       -3.25627
H         12.26888       17.74746       -4.21327
O         10.85072       20.48357       -4.34804
H         10.41568       21.31907       -4.04431
H         10.14100       19.99824       -4.83811
O          8.05497       18.26624       -3.93370
H          7.64853       18.69127       -4.72940
H          7.56479       17.41390       -3.82260

Ca 1.0



