%chk=apoCaM-CA-Ng.loop2.water6.frame57.chk
%nprocshared=20
%mem=10GB
%nosave
#b3lyp/svp scf=(tight,noincore,xqc) Test 
#IOP(5/87=12) Density=Current Pop=(MK,readradii) iop(6/33=2) iop(6/42=6)

apoCaM-CA-Ng.loop2.water6.frame57 

   -2  1 
C         57.66876       78.46089       79.65185
C         58.87709       79.07841       79.00899
O         59.48296       78.43051       78.16731
H         56.91074       78.23368       78.87245
H         57.95777       77.51707       80.16046
H         57.21174       79.14162       80.40010
N         59.28175       80.33713       79.34993
C         60.43014       81.00339       78.74010
C         61.51515       81.35120       79.75724
O         62.60571       81.70181       79.32882
C         59.92529       82.27460       78.02759
C         61.00811       83.02801       77.30817
O         61.63077       82.49839       76.40202
O         61.29285       84.29635       77.66140
H         58.72959       80.85644       80.04953
H         60.89727       80.32818       77.98950
H         59.45780       82.94470       78.78352
H         59.14457       81.99357       77.28825
N         61.30153       81.29681       81.10566
C         62.30240       81.63243       82.11134
C         63.45366       80.65514       82.06243
O         64.60430       81.05966       81.95877
C         62.75090       83.10121       81.99915
H         60.38212       81.01244       81.46743
H         61.83189       81.51304       83.11258
H         61.87102       83.77292       82.07667
H         63.45421       83.34751       82.82331
H         63.26978       83.30609       81.04032
N         63.19162       79.32068       82.14995
C         64.21601       78.28994       82.19623
C         65.08247       78.35970       80.95365
O         66.27905       78.60046       81.05018
C         65.02840       78.38693       83.50681
C         64.13756       78.48444       84.72021
O         64.21419       79.46907       85.43755
O         63.24415       77.52430       85.03250
H         62.20872       79.01108       82.20199
H         63.71399       77.29984       82.20401
H         65.67513       79.29026       83.48287
H         65.68819       77.49662       83.59864
N         64.51912       78.14326       79.73314
C         65.25866       78.18467       78.48387
C         66.45166       77.27098       78.53422
O         67.54886       77.71708       78.22550
H         63.51630       77.90680       79.68568
H         65.59517       79.22410       78.27144
H         64.58542       77.86467       77.66031
N         66.32342       75.98937       78.97865
C         67.47941       75.12390       79.15201
C         67.81023       74.39226       77.86063
O         68.85088       73.75094       77.81234
C         67.22416       74.13786       80.31259
C         68.46675       73.40094       80.74587
N         69.51475       74.07539       81.27726
O         68.51867       72.18500       80.64057
H         65.39724       75.66317       79.29661
H         68.34239       75.76319       79.44418
H         66.42872       73.42182       80.00681
H         66.86036       74.69879       81.20016
H         69.47846       75.09847       81.39786
H         70.35960       73.57384       81.58822
N         66.96445       74.41483       76.78294
C         67.24322       73.71229       75.54453
C         66.24671       72.60113       75.33133
O         66.14465       71.73626       76.19137
H         66.06989       74.92301       76.83239
H         68.24985       73.24359       75.56669
H         67.23755       74.43532       74.70083
N         65.53662       72.50511       74.16906
C         64.73061       71.32491       73.86023
C         63.45025       71.21099       74.68149
O         62.87431       70.13380       74.66641
C         64.43549       71.18439       72.34202
C         63.54687       72.29464       71.76332
O         65.63422       71.07458       71.61301
H         65.69159       73.22325       73.44673
H         65.35672       70.43956       74.11811
H         63.88650       70.22844       72.19344
H         66.06719       71.96644       71.58565
H         62.57223       72.31581       72.28373
H         64.02478       73.29088       71.85520
H         63.35675       72.09223       70.68806
N         62.93447       72.25188       75.40558
C         61.74726       72.09990       76.25402
C         62.08918       72.40946       77.70170
O         63.19767       72.82210       78.00471
C         60.53601       72.96193       75.76071
C         60.83506       74.48257       75.74802
C         60.03473       72.45356       74.40055
C         59.58031       75.33672       75.52895
H         63.39766       73.17059       75.37392
H         61.40611       71.04241       76.25539
H         59.69537       72.79749       76.46647
H         61.58900       74.72095       74.96789
H         61.24667       74.78184       76.73541
H         59.80423       71.36823       74.46327
H         59.09605       72.96091       74.10036
H         60.79444       72.61644       73.61567
H         58.83462       75.13251       76.32820
H         59.84930       76.41289       75.57258
H         59.11547       75.14531       74.54146
N         61.12688       72.23133       78.64976
C         61.28238       72.56228       80.05587
C         60.97706       71.32569       80.89184
O         61.82368       70.90569       81.67123
C         60.33165       73.73844       80.35293
C         60.52119       74.31680       81.72222
O         60.88538       75.47534       81.84085
O         60.26998       73.58089       82.82020
H         60.20948       71.88204       78.34771
H         62.31818       72.91243       80.26553
H         59.27102       73.43842       80.21694
H         60.55041       74.54219       79.61258
N         59.78816       70.67341       80.74507
C         59.41287       69.44778       81.44205
C         57.90915       69.44422       81.65229
O         57.19926       69.52735       80.65963
C         59.86002       68.20997       80.62146
C         59.33924       66.89832       81.19051
C         60.18142       66.03554       81.91247
C         57.99482       66.51856       80.99146
C         59.68029       64.83807       82.44144
C         57.50080       65.32593       81.51854
C         58.34116       64.48666       82.24741
H         59.12153       71.03691       80.04685
H         59.94480       69.39541       82.41401
H         60.97237       68.21252       80.61730
H         59.53113       68.28385       79.56190
H         61.21927       66.29276       82.07844
H         57.31880       67.13429       80.41900
H         60.32860       64.18066       83.00492
H         56.46465       65.05440       81.35778
H         57.95332       63.56254       82.65619
N         57.32896       69.30882       82.88199
C         55.89254       69.27230       83.12051
C         55.12432       70.41387       82.47540
O         54.10053       70.16962       81.85506
C         55.79005       69.37156       84.64876
C         57.01019       68.59994       85.08654
C         58.06771       69.11871       84.11849
H         55.49756       68.29091       82.77035
H         55.95253       70.42357       84.97804
H         54.82470       69.01519       85.06669
H         57.28222       68.68877       86.15959
H         56.81930       67.52594       84.85504
H         58.49585       70.09648       84.43082
H         58.85930       68.34197       84.04541
N         55.57033       71.69483       82.60312
C         54.84142       72.87370       82.12748
C         54.64230       72.93000       80.61196
O         53.93939       73.82774       80.16716
C         55.57640       74.15263       82.59211
C         55.59842       74.27695       84.12728
C         56.44105       75.43614       84.56696
O         57.50362       75.22219       85.36698
O         56.16951       76.57182       84.21197
H         56.45877       71.83076       83.10665
H         53.82872       72.86105       82.58878
H         55.07110       75.05675       82.18594
H         56.61571       74.12563       82.19252
H         56.01796       73.36431       84.59665
H         54.56037       74.40584       84.50245
N         55.20693       72.03134       79.75801
C         55.00544       72.04212       78.32272
H         54.33244       72.86009       77.99168
H         55.98485       72.16098       77.81398
H         54.55696       71.07495       78.01050
H         55.81526       71.29901       80.12311
Ca        62.87060       75.59038       83.93493
O         62.48993       72.35765       84.74159
H         61.67567       71.91159       84.39788
H         63.23890       71.85216       84.33753
O         62.03522       76.82571       87.51302
H         61.62601       76.68403       88.40265
H         62.50185       77.69548       87.59074
O         59.84302       76.87639       84.12075
H         59.07602       77.23567       84.63175
H         60.01860       77.56043       83.42678
O         60.95608       73.93204       86.91818
H         61.81201       73.65663       87.33331
H         60.48724       74.43769       87.62864
O         64.94067       74.81435       85.84247
H         64.66499       74.35600       86.67547
H         65.67095       75.42277       86.11886
O         64.39265       73.69657       82.22346
H         64.97571       73.66808       83.02355
H         64.45250       74.63308       81.90656

Ca 1.0



