%chk=apoCaM-CA-Ng.loop1.water5.frame619.chk
%nprocshared=20
%mem=10GB
%nosave
#b3lyp/svp scf=(tight,noincore,xqc) Test 
#IOP(5/87=12) Density=Current Pop=(MK,readradii) iop(6/33=2) iop(6/42=6)

apoCaM-CA-Ng.loop1.water5.frame619 

   0  1 
C         69.49771      109.79557       95.72360
C         68.57587      110.47507       96.69194
O         68.12807      111.58046       96.42170
H         70.47505      109.60201       96.21435
H         69.05438      108.82914       95.40409
H         69.66661      110.42830       94.82656
N         68.24262      109.85233       97.85597
C         67.35263      110.43758       98.85931
C         67.91254      111.73790       99.43600
O         68.99317      112.16070       99.04765
C         66.99584      109.37854       99.93494
C         68.17701      108.74900      100.62072
O         68.99554      109.46903      101.40252
O         68.38714      107.55420      100.48408
H         68.62689      108.90795       98.01502
H         66.39177      110.70039       98.36449
H         66.43872      108.56781       99.41466
H         66.31048      109.79767      100.69980
N         67.19110      112.44678      100.35339
C         67.58318      113.76292      100.86018
C         69.01929      113.84039      101.35915
O         69.60817      114.90540      101.22895
C         66.63510      114.27658      101.97440
C         66.48616      113.26326      103.13368
C         66.01958      113.87044      104.46210
C         67.13466      114.72106      105.10382
N         66.78782      115.11465      106.46666
H         66.29637      112.05074      100.67165
H         67.52406      114.48104      100.01124
H         65.62125      114.49915      101.57439
H         67.05748      115.24015      102.32636
H         67.44348      112.75764      103.35303
H         65.76765      112.47737      102.81610
H         65.81484      113.01890      105.14738
H         65.07996      114.45122      104.33747
H         67.33800      115.62848      104.49797
H         68.07056      114.12108      105.14683
H         67.58087      115.66408      106.87084
H         65.92439      115.70271      106.46540
H         66.64117      114.26263      107.05619
N         69.63508      112.78841      101.96504
C         71.00497      112.84989      102.47047
C         71.87462      111.81240      101.74713
O         71.31566      110.97817      101.05089
C         70.95850      112.71873      104.01502
C         70.27088      111.47646      104.50920
O         69.14703      111.57525      105.24514
O         70.73609      110.37719      104.27271
H         69.11220      111.90928      102.08126
H         71.43720      113.84358      102.24949
H         70.39322      113.59402      104.40210
H         71.95862      112.76489      104.47285
N         73.24358      111.78595      101.79257
C         74.09144      112.75445      102.46651
C         74.03903      114.12236      101.82490
O         73.44816      114.28712      100.76521
H         73.72596      111.02421      101.29048
H         75.15004      112.41907      102.42373
H         73.82642      112.80892      103.53314
N         74.62741      115.17426      102.45737
C         74.55846      116.53943      101.94420
C         75.39388      116.73418      100.68876
O         76.20801      115.88237      100.35876
C         75.00053      117.56112      103.02158
C         76.46160      117.46150      103.40012
O         76.95795      116.34318      103.96289
O         77.20327      118.41293      103.21470
H         75.05143      114.99455      103.37827
H         73.49053      116.74815      101.70973
H         74.38109      117.42483      103.93383
H         74.80458      118.58645      102.63834
N         75.24909      117.87555       99.95656
C         76.11014      118.23926       98.84435
C         75.41364      118.23051       97.50408
O         76.04403      118.65552       96.54589
H         74.51032      118.54600      100.21936
H         76.98523      117.55977       98.76131
H         76.50208      119.25928       99.04858
N         74.16523      117.70281       97.32717
C         73.54337      117.58316       96.00789
C         73.51310      116.12685       95.58464
O         73.86789      115.26059       96.37209
C         72.14257      118.24275       95.97375
C         71.12534      117.56835       96.90488
O         72.26706      119.59922       96.31446
H         73.67441      117.29302       98.13438
H         74.16721      118.10050       95.24627
H         71.75915      118.15883       94.92983
H         71.50297      120.07528       95.89474
H         71.00280      116.49679       96.64022
H         71.43392      117.64970       97.96679
H         70.13728      118.06343       96.79515
N         73.12598      115.78431       94.32414
C         73.18219      114.40892       93.83373
C         74.64327      113.95937       93.66696
O         74.87454      112.76208       93.58035
C         72.32233      114.27084       92.53402
C         70.83938      114.61348       92.87212
C         72.41601      112.86345       91.91091
C         69.92165      114.71510       91.65379
H         72.80946      116.53118       93.68742
H         72.71525      113.75411       94.60511
H         72.70722      115.00018       91.78673
H         70.77945      115.60063       93.37506
H         70.43073      113.85627       93.57768
H         71.81806      112.79473       90.98129
H         73.45524      112.63266       91.60436
H         72.06204      112.09152       92.62703
H         68.90270      115.00260       91.99070
H         70.29646      115.49731       90.96032
H         69.83461      113.75055       91.11745
N         75.67995      114.85503       93.64716
C         77.09218      114.47041       93.58877
C         77.73809      114.99039       92.30852
O         77.10188      115.71184       91.55275
C         77.80590      115.03856       94.85300
C         77.25573      114.41577       96.13596
O         79.18695      114.79169       94.81839
H         75.47814      115.86456       93.68906
H         77.20055      113.36407       93.57116
H         77.62296      116.14115       94.87158
H         79.63246      115.54729       95.28475
H         76.17367      114.59686       96.23083
H         77.43719      113.31979       96.13668
H         77.75971      114.86405       97.01817
N         79.02667      114.64500       92.01330
C         79.76896      115.13697       90.86264
C         80.27467      113.97217       90.02349
O         79.94354      113.90684       88.84751
C         80.92911      116.05355       91.35673
C         81.78120      116.59992       90.20767
O         81.77777      115.38260       92.25437
H         79.52620      114.01136       92.65107
H         79.11832      115.77115       90.21904
H         80.47814      116.93890       91.86616
H         81.42306      115.53323       93.16928
H         81.15408      117.17432       89.49506
H         82.56661      117.27343       90.61364
H         82.28755      115.77369       89.66456
N         81.14105      113.05958       90.54947
C         81.83587      112.05097       89.76496
C         81.70251      110.67792       90.39470
O         82.05114      110.52007       91.55775
C         83.32623      112.44985       89.72507
C         84.20828      111.45298       88.95488
C         85.67614      111.90123       88.99379
C         86.64007      110.87644       88.37464
N         86.40382      110.67222       86.94540
H         81.41055      113.14004       91.53973
H         81.47195      112.02858       88.71341
H         83.70672      112.53139       90.76792
H         83.41198      113.45123       89.24787
H         83.84875      111.37848       87.90670
H         84.13845      110.45176       89.43182
H         85.97613      112.02755       90.05750
H         85.78598      112.88303       88.48358
H         86.55305      109.90615       88.91280
H         87.67749      111.25246       88.51655
H         85.46618      110.24198       86.78244
H         86.47690      111.58197       86.43506
H         87.13091      110.01821       86.57537
N         81.33509      109.60730       89.63529
C         81.47139      108.23771       90.11442
C         80.55127      107.93547       91.29545
O         81.08323      107.58316       92.33862
C         81.36992      107.23244       88.94402
C         81.76999      105.81137       89.36955
C         81.81841      104.88812       88.18612
O         80.81185      104.66893       87.53158
O         82.97867      104.29601       87.84186
H         81.08243      109.76453       88.64693
H         82.52372      108.13155       90.46864
H         82.09186      107.56011       88.16204
H         80.36900      107.22800       88.47811
H         81.05307      105.41432       90.11894
H         82.78202      105.84252       89.83057
N         79.19106      108.05135       91.27546
C         78.40607      108.49677       90.14599
H         77.33362      108.53365       90.43439
H         78.71317      109.51665       89.83824
H         78.48598      107.78892       89.30315
H         78.67559      107.82962       92.14213
Ca        70.70094      108.35585      102.38257
O         71.68583      105.63012      102.00024
H         72.45860      105.43219      102.58659
H         71.42951      104.75474      101.61620
O         73.43344      109.33292      103.86487
H         73.48076      110.20525      104.33118
H         74.16966      109.36312      103.20449
O         68.58102      106.35638      103.55055
H         68.04171      106.14371      102.74820
H         68.99164      105.49300      103.80758
O         71.52838      107.25002      105.35201
H         71.69387      108.12975      105.77522
H         70.79686      106.85197      105.88733
O         72.66694      108.38419      100.09372
H         73.38560      108.49238      100.76620
H         72.83144      107.49315       99.69532

Ca 1.0



