%chk=apoCaM-CA-Ng.loop4.water3.frame434.chk
%nprocshared=20
%mem=10GB
%nosave
#b3lyp/svp scf=(tight,noincore,xqc) Test 
#IOP(5/87=12) Density=Current Pop=(MK,readradii) iop(6/33=2) iop(6/42=6)

apoCaM-CA-Ng.loop4.water3.frame434 

   -3  1 
C         77.47135       78.18187       97.41194
C         76.26877       77.90457       98.26375
O         75.92138       76.74392       98.40413
H         78.34981       77.64638       97.83098
H         77.28570       77.81660       96.37983
H         77.70193       79.26626       97.37089
N         75.59741       78.92079       98.88325
C         74.42694       78.74911       99.74357
C         74.78917       77.88560      100.94653
O         74.23948       76.81625      101.11555
C         73.15867       78.35792       98.91912
C         73.16454       76.99799       98.27536
O         73.01939       75.89983       99.03628
O         73.26928       76.88660       97.06431
H         75.94915       79.88254       98.76064
H         74.16515       79.74973      100.15600
H         73.05804       79.12688       98.12097
H         72.25159       78.42965       99.55758
N         75.75364       78.32848      101.80942
C         76.30453       77.65501      102.99510
C         75.27458       77.47704      104.11774
O         75.39412       78.16112      105.12490
C         77.05685       76.33527      102.65066
C         77.85722       75.77561      103.86263
C         77.98649       76.49939      101.43455
C         79.01627       76.65944      104.35213
H         76.17028       79.24823      101.59368
H         77.06883       78.36417      103.37970
H         76.30286       75.57435      102.36541
H         78.29434       74.79779      103.57205
H         77.16747       75.59383      104.71406
H         77.40199       76.76954      100.53686
H         78.74261       77.29342      101.59822
H         78.50215       75.54041      101.21279
H         79.53194       76.15627      105.19639
H         79.76939       76.81644      103.55285
H         78.66165       77.64351      104.71726
N         74.23991       76.59063      104.02312
C         73.17897       76.47799      105.01627
C         73.61460       75.69843      106.26259
O         73.55434       76.30527      107.32285
C         71.87972       75.95227      104.37105
C         71.31636       76.87756      103.31802
O         70.28199       76.57347      102.74628
O         71.92805       78.03556      102.99754
H         74.15299       76.00578      103.18926
H         72.90276       77.50502      105.35429
H         71.10649       75.83489      105.16144
H         72.05955       74.98619      103.87883
N         74.08684       74.40878      106.29927
C         74.32328       73.51576      105.17545
C         73.07247       72.80055      104.68319
O         72.00525       73.03504      105.23247
H         74.39921       74.05681      107.21833
H         75.01001       72.71128      105.51547
H         74.85224       74.08142      104.39176
N         73.09480       71.88092      103.66463
C         74.30661       71.39187      103.00246
C         75.13101       72.51453      102.39896
O         74.55517       73.52173      102.01394
C         74.00252       70.31208      101.93399
C         73.22693       70.83102      100.75091
O         71.97599       71.30156      100.90443
O         73.72347       70.80194       99.63586
H         72.19283       71.46148      103.39218
H         74.90084       70.90888      103.80587
H         73.44097       69.47328      102.39702
H         74.96204       69.89712      101.55823
N         76.49513       72.48582      102.37410
C         77.31965       71.33912      102.71525
C         78.02035       71.52508      104.02712
O         77.78491       72.50606      104.71905
H         76.99685       73.33684      102.08440
H         78.06019       71.18974      101.90151
H         76.74468       70.40061      102.79329
N         78.90544       70.57641      104.43485
C         79.61235       70.63384      105.70494
C         81.08549       70.96962      105.51149
O         81.75073       71.19871      106.51253
C         79.29211       69.37884      106.55561
C         79.58874       68.00816      105.91584
C         81.05449       67.74104      105.74841
N         81.85899       67.67195      106.83379
O         81.51511       67.55491      104.63251
H         79.10045       69.79065      103.79675
H         79.23271       71.49299      106.30149
H         78.19611       69.39940      106.74544
H         79.79052       69.45814      107.54558
H         79.05771       67.91443      104.94588
H         79.18091       67.21283      106.57670
H         81.47857       67.80190      107.78182
H         82.86076       67.47002      106.73644
N         81.63155       71.14632      104.26628
C         82.92107       71.80509      104.04676
C         83.96572       70.92431      103.38389
O         85.09269       71.38127      103.24867
C         82.71076       73.08642      103.17768
C         81.69976       74.04529      103.82267
C         82.26191       72.76659      101.73410
H         81.07748       70.90892      103.43397
H         83.35264       72.11488      105.02378
H         83.68497       73.61941      103.10827
H         82.03368       74.32971      104.84166
H         81.60965       74.96923      103.21217
H         80.69347       73.57773      103.88940
H         82.99739       72.11154      101.22088
H         81.26968       72.27128      101.70382
H         82.19026       73.70557      101.14701
N         83.67044       69.68774      102.90108
C         84.63735       68.86556      102.18660
C         84.20019       68.66008      100.74854
O         85.01867       68.84455       99.85810
C         84.80597       67.49488      102.87270
C         85.34457       67.59886      104.27781
N         86.54533       68.17066      104.53125
O         84.69627       67.13462      105.20011
H         82.71727       69.31990      103.01286
H         85.64270       69.34068      102.15945
H         85.52382       66.88171      102.28455
H         83.83052       66.96062      102.88576
H         87.12371       68.55479      103.77116
H         86.90285       68.22394      105.49708
N         82.94365       68.22065      100.45164
C         82.55501       67.73211       99.13388
C         81.42825       68.52689       98.47713
O         80.49553       68.94807       99.14575
C         82.19828       66.22810       99.28687
C         81.09925       65.95457      100.30315
C         81.41698       65.37417      101.54548
C         79.75987       66.28323      100.03786
C         80.42147       65.15614      102.50399
C         78.76547       66.06356      100.99355
C         79.09164       65.50583      102.23171
O         78.12204       65.31102      103.14801
H         82.25824       68.12501      101.21410
H         83.42046       67.76492       98.43605
H         83.13201       65.73289       99.63578
H         81.94482       65.76505       98.31127
H         82.43882       65.10703      101.78287
H         79.47704       66.70903       99.09236
H         80.68606       64.72169      103.45963
H         77.74022       66.33198      100.77048
H         78.30597       64.93492      104.02043
N         81.41455       68.63288       97.11128
C         80.28374       69.06693       96.28614
C         79.87348       70.52717       96.40414
O         78.92178       70.89155       95.72575
C         79.07241       68.12495       96.47560
C         79.43727       66.67035       96.13406
C         78.24335       65.76894       96.24693
O         77.84924       65.14958       95.27171
O         77.60794       65.62796       97.42567
H         82.22544       68.26246       96.59213
H         80.58793       68.95386       95.22046
H         78.26062       68.43718       95.78190
H         78.67799       68.20090       97.50957
H         80.22554       66.29823       96.81718
H         79.83354       66.62774       95.09503
N         80.56021       71.44265       97.14357
C         80.21033       72.86366       97.14214
C         81.25681       73.68981       96.41012
O         81.07374       74.89641       96.31269
C         80.02679       73.36608       98.58587
C         78.91803       72.64420       99.36935
C         77.53358       72.93896       98.85231
O         77.18201       72.59654       97.73596
O         76.66954       73.57779       99.65684
H         81.39365       71.14942       97.67378
H         79.27112       73.04804       96.58219
H         79.80164       74.45667       98.58912
H         80.98783       73.21655       99.12010
H         78.97267       73.01361      100.41698
H         79.09567       71.54878       99.38884
N         82.35405       73.12469       95.82835
C         83.31201       73.91021       95.08297
H         84.11764       73.25241       94.69324
H         82.80820       74.39919       94.22152
H         83.76402       74.68329       95.73883
H         82.52208       72.11094       95.88848
Ca        74.60673       74.31230       99.14040
O         74.63822       73.72963       96.19042
H         74.61608       74.67571       95.89973
H         75.30646       73.30290       95.59771
O         71.64080       74.15224      100.96534
H         70.96535       73.88851      101.63900
H         72.15359       74.88010      101.39621
O         71.66583       73.06948       97.95970
H         70.80924       73.08710       98.45609
H         71.89471       72.10843       97.89565

Ca 1.0



