%chk=apoCaM-CA-Ng.loop2.water4.frame711.chk
%nprocshared=20
%mem=10GB
%nosave
#b3lyp/svp scf=(tight,noincore,xqc) Test 
#IOP(5/87=12) Density=Current Pop=(MK,readradii) iop(6/33=2) iop(6/42=6)

apoCaM-CA-Ng.loop2.water4.frame711 

   -2  1 
C         77.33991        3.24352      -16.99875
C         78.18372        2.86553      -18.18377
O         77.80694        3.18293      -19.30272
H         76.33660        2.77658      -17.09157
H         77.79756        2.89968      -16.04679
H         77.22494        4.34661      -16.95536
N         79.33949        2.16465      -18.01346
C         80.18714        1.74429      -19.12330
C         80.78356        2.94533      -19.83379
O         81.43918        3.75287      -19.19097
C         81.32429        0.83640      -18.61313
C         82.16223        0.31125      -19.74838
O         83.47608        0.59926      -19.80798
O         81.65486       -0.37506      -20.62172
H         79.61040        1.89436      -17.05491
H         79.57218        1.13687      -19.82522
H         80.88995       -0.03168      -18.07187
H         81.96708        1.40241      -17.90330
N         80.64583        3.08680      -21.18144
C         81.25508        4.18638      -21.92590
C         80.58392        5.50740      -21.58887
O         79.48219        5.48015      -21.05687
C         81.08549        3.91480      -23.43249
H         80.13228        2.35522      -21.69768
H         82.33791        4.21918      -21.67594
H         81.57055        2.95229      -23.69809
H         80.00533        3.84915      -23.68829
H         81.52621        4.69931      -24.07236
N         81.11329        6.72133      -21.92042
C         82.47010        6.95505      -22.42779
C         83.51415        6.83540      -21.32107
O         83.15499        6.67635      -20.16441
C         82.56826        8.37276      -23.04148
C         82.31120        9.48411      -22.05632
O         82.42584       10.64388      -22.41817
O         81.92299        9.22473      -20.79110
H         80.49989        7.53656      -21.76941
H         82.70540        6.24606      -23.23898
H         81.84177        8.46585      -23.87743
H         83.58428        8.51875      -23.46618
N         84.84010        6.96130      -21.61057
C         85.87416        7.06060      -20.59064
C         86.77904        5.85383      -20.58968
O         86.53102        4.92546      -21.34672
H         85.13654        7.03029      -22.59674
H         85.44139        7.17203      -19.57643
H         86.46412        7.97666      -20.81064
N         87.88017        5.77190      -19.78646
C         88.32122        6.82788      -18.87039
C         87.49666        6.86711      -17.58441
O         86.63838        6.01747      -17.38945
C         89.84009        6.70994      -18.57641
C         90.26170        5.45951      -17.83429
N         90.80139        5.54435      -16.59689
O         90.14486        4.36315      -18.35947
H         88.46762        4.93656      -19.90884
H         88.21109        7.80513      -19.38556
H         90.15058        7.60032      -17.99110
H         90.40032        6.75959      -19.53581
H         90.91500        6.45446      -16.12826
H         91.10351        4.69193      -16.10241
N         87.72430        7.84358      -16.65457
C         87.00802        7.95694      -15.38999
C         86.32538        9.30649      -15.20277
O         85.78459        9.52471      -14.12782
H         88.46498        8.53750      -16.83423
H         87.75348        7.84058      -14.57194
H         86.25247        7.15218      -15.27028
N         86.33334       10.27390      -16.16886
C         85.79519       11.62036      -15.96195
C         84.28442       11.61497      -15.72605
O         83.53191       11.13357      -16.56101
C         86.16807       12.53811      -17.14834
C         85.66689       13.97270      -16.93059
O         87.56788       12.55667      -17.27606
H         86.79454       10.07432      -17.06758
H         86.30800       12.05232      -15.07258
H         85.71221       12.12597      -18.07438
H         87.77389       12.92168      -18.17561
H         84.55900       13.99874      -16.86279
H         86.09670       14.39406      -15.99653
H         85.97091       14.61162      -17.78534
N         83.79270       12.16951      -14.58188
C         82.37841       12.22580      -14.20511
C         81.61250       13.23918      -15.05730
O         81.95303       14.41361      -15.03382
C         82.26923       12.59969      -12.69016
C         80.79388       12.79026      -12.24554
C         82.96459       11.50849      -11.84002
C         80.64554       13.24629      -10.79321
H         84.48300       12.55317      -13.91934
H         81.93067       11.21337      -14.32271
H         82.79656       13.56768      -12.53155
H         80.22816       11.85384      -12.39159
H         80.31481       13.57503      -12.86750
H         82.44463       10.53412      -11.96122
H         84.02500       11.36592      -12.12966
H         82.98666       11.77925      -10.76751
H         81.02207       12.48398      -10.08288
H         81.19014       14.20158      -10.63562
H         79.57085       13.40661      -10.56718
N         80.53198       12.84729      -15.79658
C         79.68957       13.75137      -16.57996
C         78.19784       13.65693      -16.24041
O         77.42881       14.31422      -16.93097
C         79.91323       13.47845      -18.07658
C         81.27690       13.95875      -18.49182
O         82.15067       13.14078      -19.09103
O         81.57609       15.13316      -18.34674
H         80.30692       11.84750      -15.83191
H         79.95997       14.81517      -16.39883
H         79.18908       14.06329      -18.68404
H         79.75321       12.40156      -18.30352
N         77.70383       12.95632      -15.17494
C         76.28371       12.99216      -14.81049
C         75.78719       11.59528      -14.45750
O         75.43306       11.36608      -13.30715
C         76.09709       14.05324      -13.69683
C         74.65824       14.29260      -13.27241
C         73.64929       14.56860      -14.21820
C         74.31960       14.28257      -11.90659
C         72.33500       14.81053      -13.80456
C         73.00675       14.54318      -11.49784
C         72.01471       14.80204      -12.44593
H         78.35750       12.48853      -14.52945
H         75.67205       13.35661      -15.65825
H         76.47064       15.01772      -14.10548
H         76.72969       13.79904      -12.81788
H         73.86644       14.59598      -15.27668
H         75.07434       14.09406      -11.15374
H         71.56464       15.01204      -14.53837
H         72.75842       14.54917      -10.44426
H         70.99891       15.00121      -12.12802
N         75.71486       10.59328      -15.39437
C         75.24244        9.23787      -15.12228
C         76.06876        8.44918      -14.11906
O         75.68687        7.33414      -13.79504
C         75.36808        8.53107      -16.47823
C         75.14292        9.66320      -17.44910
C         75.95586       10.78600      -16.81008
H         74.18353        9.31912      -14.78695
H         76.42680        8.21094      -16.63091
H         74.71279        7.64212      -16.59980
H         75.41226        9.44178      -18.50333
H         74.06324        9.93315      -17.39817
H         77.04408       10.68193      -17.00116
H         75.57521       11.74887      -17.20700
N         77.24062        8.93934      -13.63065
C         78.05739        8.24407      -12.66031
C         77.47787        8.55579      -11.30030
O         77.13221        7.63633      -10.57078
C         79.54228        8.68101      -12.74705
C         80.33188        8.21791      -13.99762
C         80.04423        8.87708      -15.32413
O         80.71793        8.56656      -16.29038
O         79.11057        9.82508      -15.47561
H         77.52849        9.88898      -13.87449
H         78.03589        7.14397      -12.83364
H         80.05507        8.19532      -11.88755
H         79.64422        9.77207      -12.61824
H         80.21682        7.11898      -14.11320
H         81.40412        8.42902      -13.79237
N         77.28362        9.84967      -10.92049
C         76.64832       10.20223       -9.67205
H         75.63280        9.75225       -9.62755
H         77.25713        9.83988       -8.81870
H         76.54359       11.30621       -9.60286
H         77.55729       10.61483      -11.55615
Ca        81.75566       10.98277      -19.44817
O         80.84278        7.11099      -18.58264
H         81.19322        6.18708      -18.58303
H         79.86027        7.00177      -18.61226
O         84.65413       10.38031      -19.73768
H         84.36160       11.28981      -19.99893
H         85.62079       10.36497      -19.94744
O         78.91607        9.76335      -19.28568
H         78.82365        9.66814      -18.30500
H         78.37761        9.02130      -19.65881
O         83.74388        7.67822      -17.00846
H         83.89427        6.70076      -16.95933
H         83.73904        7.97575      -16.06406

Ca 1.0



