%chk=apoCaM-CA-Ng.loop1.water3.frame1410.chk
%nprocshared=20
%mem=10GB
%nosave
#b3lyp/svp scf=(tight,noincore,xqc) Test 
#IOP(5/87=12) Density=Current Pop=(MK,readradii) iop(6/33=2) iop(6/42=6)

apoCaM-CA-Ng.loop1.water3.frame1410 

   0  1 
C         63.04892       66.27137      120.04370
C         62.70757       67.70674      119.76470
O         62.03562       67.96943      118.77876
H         63.67474       66.17221      120.95576
H         62.11733       65.68574      120.18709
H         63.61490       65.85118      119.18540
N         63.15086       68.69434      120.59254
C         62.90636       70.11643      120.37117
C         64.24702       70.83052      120.19704
O         64.37305       72.00064      120.53001
C         62.11607       70.64917      121.58659
C         61.58541       72.05376      121.43908
O         60.90414       72.60609      122.46010
O         61.73574       72.68983      120.40715
H         63.71590       68.43217      121.41581
H         62.29417       70.27177      119.46059
H         62.76540       70.59118      122.48807
H         61.23440       69.99359      121.75247
N         65.32273       70.14101      119.72907
C         66.67234       70.68372      119.67414
C         66.77030       71.89028      118.74667
O         67.26736       72.90541      119.21405
C         67.71981       69.57569      119.38977
C         67.61406       68.47388      120.47541
C         68.72630       67.42502      120.43522
C         68.45873       66.36602      121.52305
N         69.52416       65.36896      121.58146
H         65.18408       69.16582      119.43429
H         66.93595       71.04139      120.69681
H         68.73043       70.03743      119.44724
H         67.59336       69.13334      118.37888
H         66.64796       67.93918      120.37518
H         67.64400       68.95108      121.48015
H         69.70220       67.92286      120.62474
H         68.75557       66.93350      119.43912
H         67.49171       65.85576      121.30943
H         68.37411       66.85983      122.51751
H         70.42846       65.82933      121.83361
H         69.28749       64.66532      122.31877
H         69.61337       64.88049      120.66169
N         66.27850       71.94916      117.47184
C         65.57113       70.88853      116.75917
C         64.08966       71.20988      116.65284
O         63.68438       72.32959      116.93221
C         66.23809       70.60146      115.39747
C         66.70687       71.83219      114.65224
O         65.88361       72.77893      114.15725
O         67.90881       71.99207      114.50786
H         66.35083       72.86226      116.99485
H         65.60894       69.94459      117.32822
H         65.59446       69.96031      114.75936
H         67.15711       70.01597      115.62326
N         63.20196       70.20249      116.40137
C         61.75971       70.37742      116.50350
C         61.14794       71.00230      115.28192
O         61.83321       71.21540      114.30259
H         63.56324       69.24392      116.27852
H         61.51884       70.97112      117.40982
H         61.27898       69.38171      116.61249
N         59.82197       71.30146      115.27146
C         59.11319       71.82407      114.10178
C         57.93306       70.90558      113.78597
O         57.66696       70.01911      114.58676
C         58.64700       73.25691      114.42741
C         59.81907       74.16165      114.68377
O         59.95704       74.76714      115.87829
O         60.64571       74.35811      113.80727
H         59.28501       71.15195      116.14060
H         59.78401       71.84494      113.21630
H         57.99198       73.23478      115.32621
H         58.07017       73.70051      113.60105
N         57.15055       70.99602      112.66852
C         57.31539       71.87985      111.52532
C         58.55000       71.55022      110.72511
O         58.76237       70.38544      110.41952
H         56.35838       70.33657      112.60445
H         57.25176       72.94812      111.79867
H         56.46013       71.69310      110.84022
N         59.36215       72.54115      110.26416
C         60.52428       72.27669      109.42045
C         61.61350       71.61856      110.24267
O         61.96255       72.14697      111.28790
C         61.05715       73.57022      108.75950
C         60.00815       74.18556      107.81984
O         62.20184       73.25297      108.00590
H         59.11225       73.51848      110.48039
H         60.22797       71.61261      108.57633
H         61.31853       74.30116      109.55716
H         62.67455       74.10531      107.81789
H         59.73406       73.46261      107.02067
H         59.08943       74.47286      108.37009
H         60.42020       75.09743      107.33859
N         62.20816       70.47244      109.79882
C         63.27129       69.73518      110.48035
C         64.51132       70.60199      110.67877
O         64.47943       71.53451      111.46701
C         62.78383       69.12447      111.82659
C         61.51438       68.26146      111.61214
C         63.90643       68.30696      112.50032
C         60.88046       67.76132      112.91260
H         61.89400       70.08582      108.89526
H         63.54330       68.88056      109.82084
H         62.52403       69.95794      112.49158
H         61.74887       67.39538      110.95635
H         60.74138       68.87469      111.10785
H         64.19229       67.44096      111.86670
H         64.80663       68.93161      112.67068
H         63.59521       67.94097      113.49890
H         61.55307       67.07020      113.45792
H         60.61853       68.61853      113.56831
H         59.94947       67.20475      112.67543
N         65.66320       70.30474      110.01789
C         66.92220       71.00989      110.24441
C         67.40819       71.75891      109.01513
O         68.46227       72.37000      109.12109
C         67.99079       70.02625      110.78773
C         68.25925       68.82677      109.87439
O         67.58501       69.54062      112.04009
H         65.65328       69.52969      109.34063
H         66.79827       71.79719      111.02119
H         68.95975       70.57178      110.89744
H         67.91006       70.18896      112.71557
H         68.57113       69.15912      108.86321
H         69.06873       68.20580      110.31314
H         67.36022       68.18120      109.79088
N         66.70730       71.80623      107.84375
C         67.12378       72.61138      106.69227
C         67.12338       74.09419      107.05998
O         66.09774       74.74242      106.91482
C         66.20864       72.33794      105.46174
C         66.41431       70.92450      104.91074
O         64.85029       72.48988      105.80413
H         65.83192       71.26786      107.76974
H         68.15934       72.32895      106.39699
H         66.48515       73.03161      104.63144
H         64.56161       73.39593      105.52375
H         66.16974       70.15521      105.67238
H         65.75920       70.76669      104.02718
H         67.46916       70.79088      104.58880
N         68.24919       74.68640      107.56749
C         68.34779       76.07764      108.01357
C         67.40695       76.35270      109.17747
O         66.21879       76.08898      109.07289
C         68.14441       77.07598      106.86204
C         69.09506       76.76567      105.69518
C         69.01716       77.83651      104.60595
C         69.84748       77.42214      103.38400
N         69.81301       78.45655      102.35213
H         69.10658       74.12098      107.65083
H         69.38979       76.24534      108.37090
H         68.35965       78.09538      107.25473
H         67.09682       77.05992      106.49548
H         68.81253       75.78034      105.26462
H         70.14578       76.70608      106.05861
H         69.39629       78.79877      105.01669
H         67.96080       77.97247      104.28884
H         69.43007       76.47682      102.96922
H         70.90348       77.23684      103.68240
H         70.33402       78.11723      101.51155
H         68.82485       78.66230      102.07805
H         70.27084       79.32736      102.70693
N         67.86935       76.90923      110.33065
C         67.01314       77.07456      111.49670
C         66.82383       75.73356      112.18979
O         65.67907       75.33016      112.32953
C         67.51750       78.17911      112.44469
C         67.45602       79.55407      111.76112
C         67.87092       80.64306      112.70539
O         69.11150       80.64850      113.22866
O         67.08836       81.53347      112.99731
H         68.85186       77.21748      110.38323
H         66.00890       77.43488      111.16993
H         68.54831       77.98818      112.78975
H         66.84696       78.20755      113.33318
H         66.41373       79.74638      111.41948
H         68.12335       79.57324      110.87377
N         67.84403       74.94325      112.63838
C         69.25797       75.22709      112.53527
H         69.56208       75.32475      111.47561
H         69.52655       76.12483      113.11788
H         69.83427       74.38081      112.96726
H         67.59909       74.04651      113.06973
Ca        63.66685       73.06555      114.02785
O         62.74014       76.29734      112.74801
H         63.22040       77.06979      112.35701
H         62.13871       76.69585      113.42596
O         63.23980       75.37545      115.92172
H         62.61097       74.72348      116.32100
H         64.12727       74.94322      116.00034
O         63.78047       74.39537      110.46686
H         63.55551       75.28884      110.10404
H         64.59803       74.12479      109.97904

Ca 1.0



