%chk=apoCaM-CA-Ng.loop2.water4.frame1075.chk
%nprocshared=20
%mem=10GB
%nosave
#b3lyp/svp scf=(tight,noincore,xqc) Test 
#IOP(5/87=12) Density=Current Pop=(MK,readradii) iop(6/33=2) iop(6/42=6)

apoCaM-CA-Ng.loop2.water4.frame1075 

   -2  1 
C         34.65791       53.67570       38.02754
C         33.62366       54.64996       37.52581
O         33.31766       54.59834       36.34340
H         35.52772       54.21878       38.45152
H         34.23221       52.98983       38.78008
H         35.02646       53.04164       37.19280
N         33.04811       55.60812       38.31242
C         33.36393       55.84731       39.71910
C         33.06608       57.30702       40.07873
O         33.49264       58.16029       39.31276
C         32.73546       54.76789       40.64650
C         31.22588       54.49941       40.49435
O         30.90951       53.95676       39.24325
O         30.43050       55.63420       40.67986
H         32.40768       56.26675       37.84513
H         34.46838       55.80051       39.83420
H         32.96973       55.00139       41.70426
H         33.22170       53.79518       40.46864
N         32.40978       57.69188       41.22121
C         32.17750       59.08520       41.61099
C         31.23200       59.83360       40.67476
O         31.02797       61.02025       40.89214
C         33.51464       59.83403       41.76973
H         32.08720       56.98403       41.89157
H         31.69725       59.08914       42.61506
H         34.05054       59.95212       40.80696
H         33.33957       60.85200       42.17824
H         34.17279       59.28869       42.47912
N         30.60270       59.21439       39.63346
C         29.73391       59.89899       38.68365
C         28.33436       59.32142       38.72721
O         28.18489       58.10905       38.68356
C         30.33980       59.84053       37.25987
C         30.54625       58.48340       36.62711
O         31.02992       58.41964       35.50919
O         30.21505       57.34276       37.25198
H         30.74099       58.20730       39.49167
H         29.66432       60.98378       38.91953
H         31.33004       60.34403       37.29698
H         29.68211       60.42769       36.58298
N         27.23965       60.13485       38.77759
C         25.89126       59.59104       38.76515
C         25.58661       58.80226       37.50203
O         24.58545       58.10038       37.49111
H         27.35909       61.15864       38.81295
H         25.13905       60.40387       38.86456
H         25.78791       58.92044       39.64510
N         26.37416       58.88598       36.38753
C         26.10783       58.11605       35.17585
C         26.46161       56.64548       35.36585
O         27.05888       56.28512       36.37063
C         26.89826       58.70836       33.98828
C         26.47920       60.12758       33.64794
N         27.10929       60.80333       32.66019
O         25.56868       60.67289       34.25612
H         27.15479       59.55843       36.37371
H         25.02302       58.19071       34.93606
H         26.73839       58.07881       33.09135
H         27.98372       58.69589       34.23070
H         27.88428       60.37208       32.13686
H         26.82231       61.76402       32.41905
N         26.06943       55.73193       34.43158
C         26.29768       54.29531       34.53573
C         24.98449       53.58069       34.79445
O         23.98541       54.25662       35.00041
H         25.52192       56.06126       33.62169
H         26.98651       54.04794       35.37058
H         26.76364       53.95219       33.59306
N         24.86604       52.22158       34.85627
C         25.92138       51.25560       34.55828
C         26.22374       51.28856       33.07281
O         25.30986       51.06959       32.29510
C         25.44298       49.83100       34.95069
C         26.48486       48.74771       34.64541
O         25.15459       49.81156       36.32590
H         23.93849       51.85208       35.12103
H         26.82454       51.48777       35.16403
H         24.51894       49.60115       34.36499
H         24.41856       49.15874       36.46117
H         26.71009       48.70733       33.55863
H         27.42365       48.94181       35.20485
H         26.08635       47.75465       34.94420
N         27.47763       51.55450       32.60995
C         27.81113       51.60352       31.18351
C         27.75648       50.18665       30.61391
O         28.57179       49.38232       31.04474
C         29.24785       52.20484       30.98766
C         29.43058       53.60070       31.65168
C         29.65827       52.26701       29.50546
C         28.49220       54.69369       31.13452
H         28.20980       51.74207       33.30913
H         27.08596       52.26782       30.67278
H         29.97505       51.52703       31.49026
H         30.48039       53.93402       31.50021
H         29.28799       53.52670       32.74822
H         30.69856       52.64524       29.41297
H         29.63224       51.25844       29.04249
H         28.99118       52.93979       28.93302
H         28.64896       54.87962       30.05386
H         27.43131       54.42708       31.31314
H         28.70098       55.63752       31.68069
N         26.84570       49.74327       29.69252
C         25.71177       50.49451       29.14987
C         26.08953       51.55447       28.12404
O         27.24298       51.65176       27.73475
C         24.66696       49.50095       28.56871
C         25.18686       48.66100       27.43077
O         25.23305       47.32007       27.55438
O         25.54872       49.18176       26.38821
H         26.91047       48.74065       29.45207
H         25.19610       51.00830       29.97632
H         23.75840       50.03679       28.22531
H         24.34874       48.82143       29.39046
N         25.10969       52.37004       27.63128
C         25.26658       53.38504       26.58413
C         23.90282       54.02167       26.32194
O         22.97172       53.25549       26.09358
C         25.80507       52.74831       25.27111
C         25.96805       53.76463       24.15807
C         24.85567       54.20384       23.41488
C         27.23758       54.28834       23.85437
C         25.00983       55.15309       22.40088
C         27.38517       55.24442       22.84379
C         26.27222       55.67731       22.11898
H         24.16603       52.24097       28.02934
H         26.00476       54.14673       26.91032
H         25.16386       51.91083       24.91832
H         26.80130       52.31195       25.48018
H         23.86752       53.81119       23.61403
H         28.11091       53.97081       24.40980
H         24.14790       55.48526       21.83621
H         28.36295       55.65262       22.62399
H         26.38747       56.41769       21.33788
N         23.67483       55.37459       26.26038
C         24.69283       56.42591       26.28862
C         25.32768       56.68698       27.63953
O         24.99303       56.02406       28.61034
C         23.93273       57.67607       25.82027
C         22.84504       57.09149       24.94444
C         22.41068       55.91634       25.80378
H         25.46496       56.17054       25.53195
H         23.39697       58.12344       26.67967
H         24.56641       58.46052       25.35468
H         22.02691       57.79801       24.69076
H         23.30432       56.70841       24.00825
H         21.84714       56.28879       26.68956
H         21.77605       55.20201       25.23609
N         26.27944       57.66249       27.75456
C         26.97368       57.95588       29.00306
C         28.25892       58.75438       28.74333
O         28.42751       59.82600       29.30567
C         26.02553       58.63369       30.03974
C         25.47741       60.04008       29.69155
C         24.49398       60.03651       28.56594
O         24.71827       60.66875       27.54559
O         23.32454       59.38653       28.70928
H         26.56661       58.16555       26.90089
H         27.31765       56.99526       29.44473
H         26.61288       58.73926       30.96746
H         25.17088       57.96547       30.27662
H         26.29595       60.74978       29.46820
H         24.94638       60.44353       30.58043
N         29.25532       58.30772       27.92354
C         29.26630       57.04544       27.21155
H         30.16317       56.46715       27.51484
H         28.38261       56.41406       27.41313
H         29.31996       57.24423       26.12063
H         30.08366       58.91049       27.79651
Ca        29.13047       55.30416       38.84392
O         27.60567       54.04434       41.18401
H         27.75098       53.21784       41.70889
H         27.41757       54.74163       41.86141
O         29.73153       54.28861       35.90588
H         30.20389       55.08408       35.55340
H         30.45272       53.64358       36.11555
O         27.02666       53.00851       37.96222
H         26.24470       52.61575       38.42530
H         27.43585       52.24885       37.47702
O         25.83543       55.72782       39.31454
H         25.48845       55.58830       38.39827
H         25.04778       55.59211       39.89850

Ca 1.0



