%chk=apoCaM-CA-Ng.loop1.water3.frame1401.chk
%nprocshared=20
%mem=10GB
%nosave
#b3lyp/svp scf=(tight,noincore,xqc) Test 
#IOP(5/87=12) Density=Current Pop=(MK,readradii) iop(6/33=2) iop(6/42=6)

apoCaM-CA-Ng.loop1.water3.frame1401 

   0  1 
C         34.49206       91.50715       72.75511
C         34.07107       91.24814       71.33913
O         34.07685       90.10130       70.91472
H         35.37811       92.17714       72.76150
H         33.66274       91.99260       73.31006
H         34.76109       90.55865       73.26767
N         33.70128       92.28890       70.54151
C         33.32698       92.13866       69.13883
C         34.33553       92.87767       68.28504
O         33.98525       93.71749       67.46773
C         31.86540       92.58951       68.92944
C         31.58002       93.98852       69.42208
O         30.69119       94.17659       70.41580
O         32.13853       94.95569       68.93070
H         33.71746       93.24022       70.94148
H         33.38972       91.07215       68.82805
H         31.21605       91.88898       69.49761
H         31.59532       92.50484       67.85465
N         35.65145       92.59960       68.46040
C         36.71636       93.28333       67.75134
C         36.69266       93.05433       66.24163
O         37.04972       94.00347       65.55709
C         38.08631       93.00297       68.41756
C         38.07395       93.60644       69.84434
C         39.32650       93.32473       70.67712
C         39.18014       94.00851       72.05139
N         40.30932       93.71164       72.92914
H         35.90660       91.89403       69.16942
H         36.55390       94.37845       67.88518
H         38.90352       93.49276       67.84319
H         38.27708       91.90769       68.44057
H         37.21138       93.20752       70.41768
H         37.94598       94.70862       69.75393
H         40.23111       93.71204       70.16042
H         39.42924       92.22655       70.81578
H         38.24436       93.66112       72.54545
H         39.10496       95.11054       71.90907
H         40.35621       92.68328       73.11296
H         41.20179       94.04080       72.49623
H         40.16863       94.20872       73.83912
N         36.28632       91.92262       65.58258
C         35.86430       90.63255       66.13146
C         34.41956       90.29313       65.73147
O         33.79303       91.03756       64.99061
C         36.90747       89.55564       65.72864
C         37.42403       89.68886       64.31161
O         36.63346       89.50543       63.24000
O         38.58771       90.01311       64.13257
H         36.30292       91.97975       64.55145
H         35.86088       90.63111       67.23049
H         36.54195       88.52841       65.93772
H         37.78897       89.72297       66.38787
N         33.80904       89.19779       66.27841
C         32.40427       88.82446       66.09988
C         32.03914       88.33004       64.68498
O         32.96345       87.37139       64.29646
H         34.35592       88.62326       66.93702
H         31.74352       89.66705       66.39663
H         32.19621       87.97865       66.79348
N         30.69074       87.72294       64.71792
C         30.33525       86.82674       63.58317
C         29.19020       85.89684       64.00751
O         28.56500       86.17977       65.01996
C         29.91685       87.65748       62.34193
C         31.01239       88.54770       61.83824
O         32.06615       88.07011       61.44953
O         30.82692       89.88032       61.79782
H         29.96278       88.46042       64.86731
H         31.19747       86.17265       63.34787
H         29.03310       88.27809       62.60505
H         29.61800       87.01617       61.49820
N         28.82350       84.76404       63.32334
C         29.51741       84.20051       62.17433
C         30.87231       83.64598       62.54249
O         31.13998       83.42533       63.71416
H         27.99952       84.24224       63.66144
H         29.59760       84.93871       61.36211
H         28.93313       83.35323       61.75370
N         31.79417       83.42189       61.56603
C         33.14698       82.92324       61.81740
C         33.84443       83.79540       62.84714
O         33.84552       85.00775       62.69196
C         33.96964       82.90240       60.50561
C         33.42597       81.88447       59.49540
O         35.29810       82.56189       60.80069
H         31.52645       83.66846       60.60093
H         33.09972       81.88354       62.20979
H         33.93210       83.92618       60.06008
H         35.85911       82.99824       60.10893
H         32.37948       82.10663       59.20679
H         34.04778       81.90535       58.57496
H         33.47060       80.86056       59.92487
N         34.47510       83.22407       63.92177
C         35.12724       83.98509       64.98472
C         36.17382       84.89818       64.37160
O         35.98065       86.10569       64.31193
C         34.07329       84.69784       65.88538
C         33.09110       83.65795       66.48473
C         34.75607       85.50045       67.01895
C         31.90329       84.29058       67.21375
H         34.50722       82.19632       63.99028
H         35.65744       83.28316       65.66810
H         33.49097       85.37775       65.25510
H         33.63276       82.97330       67.17320
H         32.66313       83.04127       65.67047
H         35.33436       84.82136       67.68087
H         35.44874       86.27062       66.63154
H         34.01475       86.05192       67.62856
H         31.21974       83.48906       67.56352
H         32.22378       84.86689       68.10356
H         31.34276       84.95753       66.52357
N         37.34010       84.37038       63.91615
C         38.42667       85.19060       63.40036
C         39.11611       84.59290       62.17955
O         40.00351       85.25861       61.67036
C         39.42528       85.52209       64.53920
C         39.93713       84.28062       65.27265
O         38.80119       86.35815       65.47938
H         37.50339       83.36424       64.07751
H         38.03058       86.16888       63.04290
H         40.31035       86.05435       64.11660
H         38.83002       87.27821       65.10586
H         39.09829       83.75316       65.77638
H         40.44055       83.58468       64.57167
H         40.65744       84.58830       66.06004
N         38.78077       83.37912       61.63139
C         39.45267       82.88884       60.42852
C         39.11057       83.80657       59.26298
O         37.99033       83.75600       58.78000
C         39.08831       81.41028       60.10559
C         39.56902       80.45543       61.20650
O         37.70100       81.27306       59.94063
H         38.05124       82.79886       62.06088
H         40.54977       82.91837       60.61258
H         39.60397       81.13282       59.15642
H         37.53881       80.38495       59.52719
H         40.67065       80.52701       61.32199
H         39.08569       80.68580       62.17863
H         39.31613       79.40831       60.93308
N         40.02906       84.71096       58.80247
C         39.80493       85.66904       57.71799
C         38.68855       86.65279       58.04130
O         37.57543       86.24150       58.33301
C         39.62047       84.96082       56.36539
C         40.86278       84.09996       56.07572
C         40.89693       83.55947       54.64761
C         42.18450       82.74796       54.43464
N         42.30756       82.30208       53.04941
H         40.95525       84.73572       59.25438
H         40.73548       86.27108       57.60848
H         39.53380       85.74799       55.58380
H         38.70060       84.33849       56.33874
H         40.90537       83.25651       56.80000
H         41.77201       84.72759       56.21131
H         40.88638       84.41933       53.94217
H         40.00783       82.92145       54.45362
H         42.18241       81.86522       55.11291
H         43.06869       83.37672       54.68624
H         42.35769       83.13125       52.41351
H         43.18905       81.74842       52.94898
H         41.49295       81.70123       52.78900
N         38.92378       87.99652       58.00949
C         37.93977       88.96773       58.47316
C         37.72307       88.78814       59.96865
O         36.58321       88.55841       60.34381
C         38.32183       90.42759       58.13293
C         38.29464       90.67739       56.61769
C         38.63951       92.10467       56.30266
O         39.59976       92.36182       55.59455
O         37.88471       93.10842       56.79028
H         39.83760       88.33417       57.67165
H         36.97111       88.78533       57.95171
H         39.31420       90.70428       58.53633
H         37.56879       91.10195       58.59950
H         37.27527       90.46799       56.22510
H         39.01273       90.00005       56.10804
N         38.71473       88.84325       60.91015
C         40.12614       89.08227       60.68800
H         40.70521       88.21859       61.07516
H         40.40230       89.21614       59.63480
H         40.43185       89.99360       61.24381
H         38.45326       88.67956       61.88942
Ca        34.66377       88.51021       63.40863
O         33.85485       87.23775       59.01572
H         33.00110       87.73056       58.92891
H         34.53011       87.83818       58.61134
O         36.06597       85.88623       61.03541
H         35.68762       85.70794       60.13972
H         36.41174       85.00920       61.32993
O         34.11174       90.92878       61.56979
H         34.69548       91.21824       62.31477
H         33.20431       90.91741       61.96350

Ca 1.0



