%chk=apoCaM-CA-Ng.loop3.water5.frame1130.chk
%nprocshared=20
%mem=10GB
%nosave
#b3lyp/svp scf=(tight,noincore,xqc) Test 
#IOP(5/87=12) Density=Current Pop=(MK,readradii) iop(6/33=2) iop(6/42=6)

apoCaM-CA-Ng.loop3.water5.frame1130 

   0  1 
C         69.35528       81.37762       60.18524
C         67.96021       80.94890       60.53209
O         67.08484       81.02162       59.68455
H         70.04742       80.51831       60.31619
H         69.41444       81.72224       59.13094
H         69.67200       82.20383       60.85513
N         67.69139       80.47955       61.78046
C         66.38459       79.98413       62.20858
C         65.77660       80.81770       63.33701
O         64.76677       80.40051       63.88586
C         66.46275       78.47531       62.55068
C         67.41498       78.07530       63.64659
O         67.49330       76.90058       63.96777
O         68.20041       78.97416       64.26222
H         68.46943       80.46503       62.45416
H         65.65847       80.03792       61.37698
H         66.76313       77.92560       61.63244
H         65.44396       78.12523       62.82846
N         66.27707       82.04323       63.68073
C         65.70510       82.91937       64.70648
C         64.23417       83.21123       64.39566
O         63.38061       82.89544       65.21536
C         65.84743       82.30750       66.12873
C         67.19838       81.63928       66.40972
C         67.27320       81.19209       67.88185
C         68.43225       80.22276       68.16864
N         68.14639       78.87362       67.66943
H         67.09262       82.41169       63.17014
H         66.28533       83.86942       64.69315
H         65.09118       81.50457       66.27429
H         65.64177       83.11323       66.86834
H         68.04965       82.31843       66.18656
H         67.26218       80.76472       65.73885
H         66.33161       80.69524       68.20376
H         67.39906       82.11204       68.49310
H         68.55953       80.14976       69.27060
H         69.38067       80.61210       67.73716
H         68.95536       78.24566       67.87766
H         67.29668       78.49000       68.14495
H         67.98369       78.87246       66.64382
N         63.85437       83.72021       63.18655
C         62.45189       83.71523       62.75666
C         62.21334       82.65205       61.68915
O         61.05866       82.37053       61.39820
C         61.93139       85.11184       62.37699
C         62.72818       85.81758       61.32576
O         62.88344       85.32955       60.21778
O         63.23084       87.03489       61.60074
H         64.58457       83.99803       62.51259
H         61.80285       83.38212       63.59473
H         61.93395       85.74548       63.29038
H         60.87877       85.02511       62.03089
N         63.24150       81.95502       61.12501
C         63.05664       80.75781       60.32543
C         62.65803       79.58195       61.20941
O         62.36186       79.79419       62.37658
H         64.21732       82.22236       61.30837
H         64.04179       80.51328       59.89826
H         62.35487       80.92615       59.48096
N         62.68179       78.28743       60.77941
C         63.05614       77.84993       59.44321
C         64.34310       77.03511       59.54014
O         64.33425       76.02385       60.23246
C         61.93480       76.97978       58.83647
C         60.62079       77.71631       58.72297
N         60.03417       77.90420       57.51821
O         60.06860       78.13095       59.73145
H         62.44915       77.55131       61.46643
H         63.19214       78.71621       58.77136
H         61.77126       76.07703       59.46570
H         62.26196       76.63638       57.83044
H         60.47328       77.55615       56.65382
H         59.13165       78.39755       57.44979
N         65.50112       77.36883       58.89659
C         65.63001       78.54820       58.05119
C         66.97831       78.67384       57.37399
O         67.84372       77.83368       57.54285
H         66.30940       76.74216       59.01833
H         65.45866       79.45191       58.65316
H         64.87113       78.49108       57.24251
N         67.16686       79.71157       56.50362
C         68.32287       79.80355       55.61649
C         68.98042       81.18286       55.67080
O         68.44235       82.10373       56.26012
C         67.77187       79.48455       54.20716
C         68.76080       79.46375       53.07289
C         68.58227       80.32878       51.98038
C         69.83972       78.56538       53.07062
C         69.46925       80.29940       50.90366
C         70.73080       78.54096       51.99285
C         70.54596       79.40790       50.90418
O         71.39490       79.39558       49.85777
H         66.39853       80.38321       56.36906
H         69.08463       79.04698       55.89867
H         66.96595       80.21909       53.98318
H         67.29647       78.47953       54.24384
H         67.75080       81.02275       51.95635
H         69.99023       77.88691       53.90089
H         69.31605       80.97009       50.06780
H         71.56212       77.84822       52.00422
H         72.15546       78.79897       49.82039
N         70.18848       81.36602       55.05100
C         70.88588       82.65359       54.94256
C         70.06778       83.61264       54.06904
O         69.04768       83.19552       53.53129
C         72.33757       82.38463       54.37849
C         72.30659       81.94691       52.88733
C         73.32843       83.54541       54.59487
C         73.65691       81.48348       52.33899
H         70.63750       80.53197       54.65859
H         70.99016       83.06738       55.96973
H         72.74477       81.55181       54.99569
H         71.93465       82.78131       52.25395
H         71.60887       81.10087       52.76980
H         73.29562       83.89285       55.64897
H         74.36641       83.20136       54.40699
H         73.16092       84.38866       53.90164
H         74.39853       82.30769       52.33667
H         74.04449       80.63306       52.93835
H         73.52843       81.14694       51.28818
N         70.46267       84.89514       53.83506
C         69.76340       85.75384       52.88476
C         68.48823       86.32467       53.47647
O         68.24472       86.17056       54.66398
C         70.69267       86.88081       52.39262
O         71.09840       87.68759       53.46087
H         71.31390       85.25100       54.28372
H         69.51128       85.14879       51.98456
H         70.16839       87.50149       51.63262
H         71.58820       86.41906       51.91939
H         71.68414       88.38881       53.07366
N         67.63668       87.02830       52.67742
C         66.44474       87.73351       53.13152
C         66.83398       88.85843       54.07201
O         66.27162       88.98040       55.15167
C         65.40198       86.77079       53.72552
H         67.86418       87.10796       51.67466
H         65.98346       88.21380       52.24054
H         65.13710       85.99207       52.98018
H         65.78000       86.27019       54.64002
H         64.47879       87.32638       53.99595
N         67.83670       89.71289       53.70979
C         68.31509       90.82330       54.52231
C         68.66886       90.35218       55.91954
O         68.13878       90.87550       56.88981
C         67.29163       91.96564       54.52170
H         68.32524       89.54510       52.81678
H         69.23935       91.22546       54.04992
H         67.09942       92.29254       53.47757
H         66.33283       91.64888       54.98166
H         67.69493       92.83412       55.08617
N         69.56432       89.34074       56.08328
C         69.92613       88.78729       57.37917
C         71.38364       89.08301       57.64047
O         71.68523       89.74586       58.62313
C         69.62600       87.27030       57.38878
C         69.74032       86.58077       58.76094
C         68.62658       87.02006       59.66568
O         67.60886       86.17849       59.90565
O         68.57687       88.15841       60.10206
H         70.00001       88.93892       55.24378
H         69.32296       89.27623       58.16697
H         70.30094       86.75836       56.67015
H         68.58423       87.10782       57.03351
H         70.73392       86.72449       59.23539
H         69.60307       85.49166       58.58000
N         72.34088       88.65826       56.76759
C         73.74584       88.97499       56.90375
H         74.33176       88.03549       56.96500
H         74.07238       89.54634       56.00880
H         73.95642       89.58955       57.80347
H         72.06666       88.10440       55.94372
Ca        65.70005       87.14022       60.56270
O         62.91205       88.69462       58.87977
H         62.76019       88.28746       57.99017
H         62.88173       89.67046       58.71425
O         66.66715       87.79170       63.25553
H         65.68897       87.93850       63.30805
H         66.76359       86.81704       63.10652
O         64.92389       90.22219       61.13596
H         64.78716       90.78691       61.93724
H         64.58082       90.77011       60.38595
O         65.74575       86.00340       57.41754
H         66.37327       85.23738       57.41150
H         64.87208       85.60853       57.66463
O         65.93826       89.50262       58.24744
H         66.36223       88.68275       57.89062
H         66.63887       89.91601       58.81213

Ca 1.0



