%chk=apoCaM-CA-Ng.loop1.water5.frame548.chk
%nprocshared=20
%mem=10GB
%nosave
#b3lyp/svp scf=(tight,noincore,xqc) Test 
#IOP(5/87=12) Density=Current Pop=(MK,readradii) iop(6/33=2) iop(6/42=6)

apoCaM-CA-Ng.loop1.water5.frame548 

   0  1 
C         79.11492       46.08554       51.15512
C         77.98265       45.48142       50.37724
O         76.85480       45.50714       50.84793
H         79.58491       46.90013       50.56519
H         78.75510       46.50418       52.11946
H         79.87564       45.30531       51.36872
N         78.22356       44.91640       49.15772
C         77.21904       44.25699       48.31962
C         76.15589       45.20501       47.76012
O         75.30576       44.73824       47.01517
C         76.59437       43.04611       49.05357
C         77.61051       42.00779       49.47009
O         78.80066       42.14547       49.22961
O         77.19435       40.89909       50.10949
H         79.19428       44.92334       48.80743
H         77.74026       43.85345       47.42218
H         75.86995       42.54541       48.37673
H         76.03828       43.38133       49.95212
N         76.18333       46.54889       48.00352
C         75.31434       47.55386       47.39361
C         73.85959       47.53944       47.85139
O         73.17371       48.49789       47.52076
C         75.42266       47.55133       45.84983
C         76.88867       47.61794       45.37981
C         77.04298       47.84064       43.86774
C         76.42712       46.73057       43.00251
N         76.65783       47.00086       41.58293
H         76.93021       46.93464       48.59416
H         75.70324       48.53920       47.74026
H         74.87681       48.43867       45.46082
H         74.93944       46.64335       45.43363
H         77.42037       46.68573       45.67107
H         77.38753       48.47241       45.88632
H         78.13141       47.89955       43.64631
H         76.58137       48.81479       43.59759
H         75.33177       46.67382       43.17969
H         76.88073       45.75033       43.26918
H         76.21598       46.24556       41.01099
H         76.23058       47.91840       41.31767
H         77.68426       47.02135       41.38238
N         73.30450       46.54043       48.60332
C         71.93945       46.61638       49.12361
C         71.98156       46.26648       50.60505
O         72.35695       45.13792       50.89417
C         71.01335       45.66699       48.33260
C         69.54423       45.96765       48.63892
O         68.67566       45.30764       47.76525
O         69.18852       45.59992       49.93912
H         73.85454       45.70236       48.83078
H         71.53959       47.62958       48.94761
H         71.26422       44.59561       48.49711
H         71.15724       45.88863       47.25246
N         71.68730       47.11874       51.63161
C         71.24728       48.50194       51.56525
C         70.01966       48.67026       52.42688
O         70.11205       49.29787       53.47253
H         71.83618       46.75490       52.58343
H         71.04713       48.87498       50.54603
H         72.06171       49.12388       51.99518
N         68.83165       48.12636       52.04865
C         67.62234       48.16621       52.86705
C         67.10438       46.75767       53.12573
O         67.59697       45.80771       52.53150
C         66.57118       49.09137       52.22033
C         66.35977       48.82370       50.75267
O         65.93777       47.62266       50.32463
O         66.59694       49.69971       49.93570
H         68.78156       47.66366       51.13187
H         67.85220       48.58704       53.87090
H         66.93713       50.13732       52.32115
H         65.60731       49.02269       52.76861
N         66.15060       46.54383       54.08151
C         65.67488       45.21687       54.45874
C         66.74582       44.31712       55.06486
O         66.43153       43.17319       55.35611
H         65.75052       47.35477       54.57792
H         65.25095       44.71683       53.56370
H         64.86023       45.32184       55.20925
N         68.01987       44.75124       55.29091
C         69.08784       43.91510       55.83425
C         69.35979       42.69556       54.96192
O         69.67809       42.85289       53.79158
C         70.39109       44.74650       56.02617
C         70.95871       45.35894       54.72856
O         70.13333       45.77957       56.94151
H         68.24218       45.73278       55.09733
H         68.77743       43.56624       56.84430
H         71.15861       44.06144       56.45688
H         71.01376       46.09048       57.28004
H         71.87500       45.93923       54.96099
H         71.25536       44.58853       53.99222
H         70.23587       46.04961       54.24800
N         69.25120       41.43464       55.47697
C         69.60334       40.23313       54.72181
C         68.35078       39.54908       54.18600
O         68.48423       38.69702       53.32126
C         70.49819       39.29088       55.59964
C         71.75363       40.05334       56.10890
C         70.91168       38.00636       54.84865
C         72.60443       39.25376       57.10259
H         68.91563       41.31813       56.44632
H         70.18222       40.52977       53.81817
H         69.89759       38.98751       56.48647
H         71.43240       40.96989       56.64760
H         72.38735       40.36304       55.24973
H         71.50011       37.32898       55.49685
H         70.03102       37.40502       54.55471
H         71.50912       38.25500       53.94600
H         73.43918       39.88774       57.46831
H         71.98914       38.94378       57.97426
H         73.05710       38.35759       56.63400
N         67.09860       39.90267       54.60303
C         65.88305       39.32898       54.03370
C         65.11478       38.57451       55.10217
O         65.47867       38.62835       56.26764
C         65.03266       40.47246       53.42125
C         65.80814       41.21375       52.33153
O         63.84890       39.96788       52.86102
H         66.98082       40.61079       55.33901
H         66.13230       38.59507       53.23688
H         64.78825       41.19011       54.24105
H         63.17368       40.69460       52.90628
H         66.73382       41.65601       52.75226
H         66.07543       40.51709       51.50775
H         65.18938       42.03753       51.91887
N         64.03676       37.81783       54.74704
C         63.22014       37.08242       55.69768
C         63.34068       35.59522       55.40662
O         63.83271       34.87165       56.26312
C         61.76877       37.63202       55.64558
C         60.83835       36.92178       56.62957
O         61.24138       37.53561       54.34699
H         63.78494       37.74797       53.75174
H         63.58941       37.24887       56.73458
H         61.82983       38.70917       55.93304
H         60.53096       38.22418       54.26479
H         59.82856       37.38301       56.58192
H         60.74548       35.84541       56.37323
H         61.22426       37.02364       57.66510
N         62.91002       35.06725       54.22681
C         62.99752       33.65534       53.88693
C         63.64893       33.50116       52.52832
O         63.19273       34.11966       51.57437
C         61.58629       33.04258       53.88612
C         61.62635       31.54009       53.55556
C         60.24220       30.90031       53.67723
C         60.29892       29.41395       53.29896
N         58.98639       28.78716       53.44328
H         62.46633       35.68585       53.53393
H         63.58036       33.09476       54.65225
H         60.93170       33.57103       53.15858
H         61.15765       33.17540       54.90447
H         62.31995       31.02427       54.25648
H         62.00179       31.40084       52.51816
H         59.52929       31.42235       53.00269
H         59.88633       31.00242       54.72610
H         61.02908       28.88677       53.95311
H         60.63967       29.31479       52.24376
H         59.05468       27.78258       53.16158
H         58.67384       28.83880       54.44011
H         58.28890       29.26577       52.82831
N         64.67892       32.62974       52.35034
C         65.27924       32.39310       51.04650
C         66.01303       33.63537       50.54609
O         65.67567       34.08648       49.46112
C         66.14368       31.11268       51.06241
C         66.65620       30.74343       49.66177
C         67.36355       29.41901       49.68435
O         68.53549       29.34029       49.35349
O         66.69977       28.30593       50.05339
H         65.00018       32.07047       53.15641
H         64.45528       32.15631       50.33279
H         65.49270       30.28400       51.42145
H         66.99383       31.18731       51.76314
H         67.34491       31.53567       49.29547
H         65.80175       30.66400       48.95494
N         66.99557       34.28578       51.23908
C         67.46433       33.92954       52.56179
H         68.23933       34.65486       52.88909
H         66.63424       33.97707       53.29536
H         67.93317       32.93057       52.56514
H         67.42072       35.12067       50.80585
Ca        67.16895       44.73739       49.36869
O         64.08076       43.39468       49.62888
H         63.12319       43.52851       49.84199
H         64.10932       42.52398       49.15916
O         64.23001       45.88523       51.49197
H         64.07774       46.66901       52.07793
H         63.35940       45.41826       51.47019
O         66.47120       42.65937       47.54382
H         66.74061       41.80102       47.95709
H         65.82718       42.40956       46.83547
O         65.01666       46.32117       47.73602
H         65.57225       47.02183       47.31048
H         64.16233       46.34204       47.23639
O         68.18916       42.43455       50.72651
H         68.03782       43.16248       51.38135
H         69.14123       42.52289       50.47413

Ca 1.0



