%chk=apoCaM-CA-Ng.loop4.water6.frame1005.chk
%nprocshared=20
%mem=10GB
%nosave
#b3lyp/svp scf=(tight,noincore,xqc) Test 
#IOP(5/87=12) Density=Current Pop=(MK,readradii) iop(6/33=2) iop(6/42=6)

apoCaM-CA-Ng.loop4.water6.frame1005 

   -3  1 
C         37.62626       58.30977       30.38187
C         37.87950       59.23418       29.21848
O         37.89621       58.72855       28.10733
H         36.65878       57.78993       30.21252
H         38.43187       57.54854       30.42669
H         37.55566       58.79212       31.36867
N         38.06642       60.58351       29.31366
C         38.15398       61.38423       30.53229
C         36.96647       62.32684       30.68939
O         36.93840       63.05899       31.66998
C         39.44328       62.22816       30.48581
C         40.66406       61.39200       30.24786
O         41.35368       61.59751       29.26258
O         41.00493       60.41821       31.11241
H         38.18574       61.08589       28.42631
H         38.19276       60.74987       31.43316
H         39.56858       62.78086       31.44163
H         39.35867       62.97485       29.66308
N         35.94645       62.37396       29.78166
C         34.80620       63.28125       29.92280
C         35.18644       64.75836       29.74512
O         34.30900       65.59292       29.91782
C         33.64726       62.90247       28.93782
C         34.03084       63.13817       27.45050
C         33.17295       61.45740       29.19683
C         32.90011       62.84729       26.46263
H         35.95892       61.71795       28.99158
H         34.40009       63.15328       30.95161
H         32.78499       63.56721       29.17073
H         34.90108       62.51668       27.16270
H         34.30403       64.20700       27.32104
H         33.95306       60.71348       28.93455
H         32.90554       61.32965       30.26687
H         32.26293       61.22530       28.60815
H         32.64005       61.76919       26.45941
H         32.00029       63.44822       26.71131
H         33.23250       63.11191       25.43638
N         36.44342       65.16163       29.37955
C         36.79078       66.55458       29.08595
C         38.29057       66.67165       28.84090
O         38.82444       65.91167       28.04434
C         36.02584       67.03813       27.82778
C         36.24046       68.49166       27.48055
O         36.99038       69.30085       28.25318
O         35.70582       68.95136       26.48470
H         37.18156       64.45455       29.27314
H         36.50556       67.19593       29.94930
H         34.93474       66.90247       27.96013
H         36.33596       66.42126       26.96613
N         39.02754       67.63048       29.47234
C         40.46259       67.79232       29.28894
C         40.87911       68.03909       27.85076
O         40.04600       68.08426       26.95596
H         38.55565       68.27951       30.12003
H         40.97410       66.87394       29.64820
H         40.81254       68.64834       29.90664
N         42.20335       68.18565       27.57118
C         42.74911       68.31291       26.22473
C         43.43380       69.65965       26.05110
O         44.10942       70.09716       26.97156
C         43.71717       67.13822       25.94427
C         44.88356       67.03616       26.89771
O         45.81742       68.00471       26.95047
O         45.00660       66.04959       27.60601
H         42.86877       68.17492       28.36007
H         41.94468       68.21728       25.46853
H         44.11459       67.21763       24.90946
H         43.12796       66.19637       26.00559
N         43.38388       70.37249       24.88833
C         42.68251       69.96277       23.68162
C         41.18175       70.17639       23.77520
O         40.73979       70.68165       24.79786
H         43.94151       71.23978       24.83299
H         42.96782       68.92591       23.42594
H         43.03851       70.63245       22.87733
N         40.29960       69.90762       22.75743
C         40.53473       69.23100       21.47589
C         40.64330       67.72771       21.70150
O         41.56002       67.28212       22.37497
C         41.70198       69.80909       20.64083
C         41.61047       71.34152       20.49084
C         42.82898       71.90571       19.80352
N         42.71682       72.63759       18.67110
O         43.93363       71.72140       20.29387
H         39.32227       70.20290       22.91478
H         39.61938       69.40064       20.86377
H         41.69863       69.34039       19.63176
H         42.66674       69.52409       21.09577
H         41.55845       71.81947       21.49047
H         40.68206       71.60752       19.94057
H         41.79658       72.82393       18.24805
H         43.55689       73.03327       18.22244
N         39.69294       66.88697       21.19480
C         39.63420       65.45068       21.47176
C         38.33002       65.11409       22.15880
O         37.29792       65.66087       21.78699
C         39.78928       64.57735       20.19966
C         41.19960       64.71105       19.61944
C         38.73525       64.86840       19.11923
H         38.94012       67.29099       20.61665
H         40.45883       65.14658       22.15510
H         39.66994       63.51281       20.50974
H         41.39294       65.75020       19.28194
H         41.95311       64.43353       20.38839
H         41.32137       64.01773       18.76008
H         37.70893       64.70804       19.50765
H         38.82437       65.90761       18.74229
H         38.87390       64.17552       18.26524
N         38.30267       64.19275       23.16253
C         37.07889       63.82147       23.85796
C         36.75457       62.32940       23.78444
O         35.66880       61.95839       24.19968
C         37.13554       64.30645       25.31626
C         38.00652       63.48400       26.23777
N         39.35379       63.41413       26.12101
O         37.45995       62.87595       27.13870
H         39.19227       63.75705       23.43433
H         36.22349       64.35336       23.38623
H         36.09776       64.25377       25.70818
H         37.45173       65.36968       25.34053
H         39.86855       63.94716       25.41177
H         39.89928       62.83420       26.77674
N         37.66020       61.41115       23.32501
C         37.38156       59.97271       23.30478
C         38.66880       59.15289       23.27323
O         39.72834       59.68823       22.98610
C         36.42894       59.63657       22.13033
C         36.96538       60.14527       20.80112
C         38.11769       59.58851       20.22181
C         36.32150       61.20436       20.13488
C         38.63055       60.08776       19.02282
C         36.83381       61.70314       18.93139
C         37.99478       61.14805       18.37445
O         38.50671       61.62110       17.22026
H         38.58993       61.73248       23.04175
H         36.91043       59.70464       24.27678
H         35.45875       60.13575       22.34010
H         36.22281       58.54557       22.07520
H         38.62340       58.76687       20.69273
H         35.43034       61.65604       20.55183
H         39.52588       59.64945       18.59925
H         36.33162       62.52446       18.43628
H         38.10009       62.35473       16.73786
N         38.65364       57.83948       23.65677
C         39.88590       57.05548       23.74127
C         39.64469       55.82551       24.61700
O         39.84233       54.70316       24.16926
C         40.33371       56.68091       22.30239
C         41.80639       56.27388       22.16195
C         42.71509       57.47164       22.24978
O         43.71873       57.50082       23.14090
O         42.57489       58.40619       21.47477
H         37.76347       57.43009       23.97796
H         40.65167       57.67925       24.25006
H         40.18640       57.52808       21.60852
H         39.66950       55.86870       21.93284
H         41.94879       55.84769       21.14620
H         42.08207       55.49774       22.90674
N         39.12149       55.98217       25.86902
C         38.62579       54.86353       26.66384
C         37.12448       54.79963       26.47192
O         36.63307       53.78480       25.99800
C         38.96516       54.98867       28.16752
C         40.46022       54.90082       28.49943
C         41.22539       56.10805       28.05601
O         42.16087       55.99418       27.28177
O         40.90833       57.31766       28.55564
H         38.90799       56.93862       26.19144
H         39.05169       53.89972       26.30316
H         38.48027       54.12958       28.68292
H         38.53724       55.91800       28.59918
H         40.88627       53.97318       28.05838
H         40.57212       54.83611       29.60387
N         36.33819       55.86879       26.78342
C         34.90742       55.90559       26.56626
H         34.39271       56.09304       27.53097
H         34.67004       56.73433       25.86564
H         34.51963       54.96073       26.13211
H         36.77065       56.71550       27.17351
Ca        42.15715       59.13093       28.07759
O         43.04219       61.64885       26.26326
H         43.33772       61.65660       25.31830
H         43.26830       62.55107       26.60268
O         43.61342       58.29095       25.75169
H         42.65401       58.27368       25.50801
H         43.88429       57.33859       25.76543
O         45.33717       58.80425       28.13714
H         45.81499       58.83344       27.27050
H         45.94638       58.31064       28.74102
O         44.26077       61.24818       29.54880
H         44.00821       62.00793       30.13115
H         44.62103       61.67199       28.72979
O         40.17178       59.85740       26.04180
H         40.56687       60.53808       25.44143
H         39.19989       60.04207       26.02245
O         43.20938       58.13862       30.75381
H         43.77919       57.33294       30.67526
H         42.32514       57.79145       31.03337

Ca 1.0



