%chk=apoCaM-CA-Ng.loop1.water3.frame703.chk
%nprocshared=20
%mem=10GB
%nosave
#b3lyp/svp scf=(tight,noincore,xqc) Test 
#IOP(5/87=12) Density=Current Pop=(MK,readradii) iop(6/33=2) iop(6/42=6)

apoCaM-CA-Ng.loop1.water3.frame703 

   0  1 
C         86.38987       19.36244        6.88095
C         87.62671       19.70610        6.10521
O         87.86853       20.87848        5.85584
H         85.73344       18.71346        6.26491
H         86.66908       18.82192        7.81019
H         85.82974       20.28083        7.15869
N         88.47469       18.71588        5.71089
C         89.70944       18.95983        4.96741
C         89.75631       18.15041        3.67559
O         88.87210       17.34084        3.43182
C         90.93455       18.70213        5.88167
C         91.06175       17.31952        6.47171
O         90.24994       16.44332        6.23215
O         92.08990       17.05242        7.29887
H         88.23666       17.74930        5.97796
H         89.76436       20.02934        4.66885
H         90.87601       19.41533        6.73220
H         91.86721       18.92457        5.32261
N         90.77434       18.34955        2.78711
C         90.92776       17.62466        1.52838
C         92.24008       16.87267        1.55578
O         93.26063       17.46147        1.88771
C         90.87079       18.59347        0.33031
C         90.99118       17.82444       -1.00161
C         90.79616       18.72751       -2.22384
C         90.95281       17.91009       -3.51540
N         90.71002       18.72707       -4.70182
H         91.48855       19.05864        3.01399
H         90.09580       16.90005        1.38687
H         91.67836       19.35512        0.40104
H         89.88944       19.11566        0.35752
H         90.21576       17.02672       -1.03192
H         91.99283       17.34469       -1.06210
H         91.54744       19.54663       -2.21420
H         89.77706       19.17036       -2.18710
H         90.23271       17.06069       -3.51003
H         91.98655       17.50291       -3.56187
H         90.83894       18.13303       -5.55327
H         89.72983       19.09127       -4.69056
H         91.38741       19.52251       -4.73707
N         92.28845       15.56075        1.18959
C         93.50430       14.75809        1.31762
C         93.39713       13.42414        0.57934
O         92.29382       13.00203        0.26136
C         93.74578       14.51557        2.83342
C         92.50451       13.93743        3.47491
O         92.10248       12.82654        3.16717
O         91.77602       14.69468        4.31683
H         91.42557       15.12921        0.82800
H         94.33817       15.31858        0.84842
H         93.95371       15.49252        3.31658
H         94.61384       13.86089        3.03962
N         94.48932       12.65919        0.28202
C         95.88197       13.04295        0.45952
C         96.33912       14.07530       -0.55097
O         95.54601       14.55259       -1.34692
H         94.32796       11.72902       -0.12824
H         96.50624       12.14439        0.26020
H         96.08894       13.36485        1.49598
N         97.65368       14.43094       -0.58719
C         98.23558       15.31756       -1.59490
C         98.12092       14.70707       -2.98612
O         98.49871       13.55623       -3.16245
C         99.71891       15.63662       -1.27797
C        100.65881       14.45637       -1.34854
O        101.57950       14.46115       -2.15018
O        100.51331       13.40442       -0.52120
H         98.26664       14.03210        0.13748
H         97.70545       16.29570       -1.56330
H         99.78623       16.08923       -0.26537
H        100.06384       16.40325       -2.00821
N         97.65153       15.43790       -4.03844
C         97.55873       14.89261       -5.38657
C         96.40999       13.91591       -5.56458
O         96.28467       13.36452       -6.64859
H         97.40679       16.42943       -3.89514
H         98.52846       14.42247       -5.65968
H         97.37593       15.72256       -6.10382
N         95.48579       13.71949       -4.58182
C         94.27931       12.91489       -4.73277
C         94.15143       11.89251       -3.61157
O         95.01610       11.81563       -2.74934
C         93.04548       13.86492       -4.73871
C         92.84350       14.60983       -3.41100
O         93.17061       14.80877       -5.77045
H         95.58861       14.23358       -3.70407
H         94.28549       12.36930       -5.70196
H         92.11465       13.27948       -4.90502
H         92.98636       14.33060       -6.62098
H         92.73999       13.90039       -2.56347
H         93.68140       15.30593       -3.20256
H         91.90867       15.19869       -3.46341
N         93.03088       11.11998       -3.53390
C         92.73649       10.23790       -2.41115
C         93.71306        9.08401       -2.41168
O         94.40692        8.88339       -1.42671
C         91.25572        9.73170       -2.47064
C         90.27031       10.93503       -2.40563
C         90.97446        8.74287       -1.31770
C         88.80566       10.54405       -2.61158
H         92.33244       11.20473       -4.28463
H         92.82639       10.80962       -1.46578
H         91.09658        9.19734       -3.43270
H         90.50162       11.66493       -3.20689
H         90.37851       11.46290       -1.43316
H         91.10810        9.24290       -0.33448
H         89.94829        8.33103       -1.37762
H         91.65552        7.86822       -1.36649
H         88.17833       11.46032       -2.60646
H         88.68009       10.03672       -3.59199
H         88.43701        9.88376       -1.80259
N         93.75731        8.25563       -3.48882
C         94.57268        7.04443       -3.57638
C         94.11100        6.17270       -4.74284
O         93.25336        6.57634       -5.51708
C         96.09739        7.35974       -3.68133
C         96.42327        8.29532       -4.84846
O         96.57823        7.94203       -2.49967
H         93.11604        8.48526       -4.26053
H         94.38166        6.42994       -2.66884
H         96.66502        6.41690       -3.85825
H         96.71459        7.20351       -1.84897
H         96.09851        7.85206       -5.81248
H         95.92394        9.27844       -4.71107
H         97.52042        8.46674       -4.89242
N         94.62883        4.92422       -4.89935
C         94.20518        4.01552       -5.95436
C         93.63350        2.74819       -5.33874
O         92.48690        2.42724       -5.61982
C         95.38266        3.75873       -6.92703
C         94.96785        2.87970       -8.10916
O         96.47454        3.16401       -6.27419
H         95.34709        4.59967       -4.23569
H         93.40143        4.47856       -6.57074
H         95.69154        4.74012       -7.36280
H         97.04230        3.89989       -5.92458
H         95.82233        2.76665       -8.80964
H         94.65869        1.87127       -7.76227
H         94.12413        3.34821       -8.66024
N         94.38046        1.97321       -4.50107
C         93.92993        0.69902       -3.95921
C         93.97096        0.69854       -2.44195
O         94.99396        1.04475       -1.86606
C         94.84071       -0.41317       -4.51418
C         94.43617       -1.80516       -3.99913
C         95.27968       -2.90432       -4.64823
C         94.89400       -4.28238       -4.09506
N         95.66122       -5.34067       -4.74938
H         95.33949        2.26929       -4.26819
H         92.89696        0.46010       -4.29649
H         95.90069       -0.21422       -4.23966
H         94.75893       -0.39942       -5.62371
H         93.36413       -1.98903       -4.23174
H         94.57425       -1.84769       -2.89642
H         96.35747       -2.71877       -4.44629
H         95.11159       -2.88603       -5.74731
H         93.80868       -4.46336       -4.26174
H         95.08917       -4.30831       -2.99923
H         95.45268       -5.34988       -5.77439
H         96.68518       -5.19103       -4.59822
H         95.38811       -6.26347       -4.34080
N         92.92473        0.17425       -1.73912
C         93.00094       -0.10055       -0.31065
C         92.85771        1.17165        0.52058
O         93.79985        1.47755        1.23727
C         92.03227       -1.24488        0.06810
C         92.19975       -1.69964        1.52480
C         91.29523       -2.85931        1.83110
O         90.36457       -2.75218        2.79816
O         91.40528       -3.90717        1.21360
H         92.11793       -0.19364       -2.26705
H         94.00763       -0.53710       -0.10971
H         92.26702       -2.11068       -0.59178
H         90.97973       -0.97983       -0.12443
H         91.96172       -0.85785        2.20926
H         93.25129       -2.01495        1.70192
N         91.76547        1.99351        0.50838
C         90.57362        1.79802       -0.28844
H         89.87713        2.64860       -0.12802
H         90.82633        1.75938       -1.36693
H         90.02933        0.89127        0.02715
H         91.79015        2.83693        1.10314
Ca        89.68374       14.03945        4.87797
O         91.14554       13.17769        7.28858
H         90.32290       13.09214        7.83301
H         91.46035       14.10098        7.45812
O         88.68804       14.18092        1.96755
H         88.27149       15.06015        1.78437
H         89.22276       13.98495        1.15793
O         88.55124       11.37743        4.29836
H         89.11920       11.49827        3.49607
H         89.16373       11.00517        4.98171

Ca 1.0



