%chk=apoCaM-CA-Ng.loop2.water4.frame1446.chk
%nprocshared=20
%mem=10GB
%nosave
#b3lyp/svp scf=(tight,noincore,xqc) Test 
#IOP(5/87=12) Density=Current Pop=(MK,readradii) iop(6/33=2) iop(6/42=6)

apoCaM-CA-Ng.loop2.water4.frame1446 

   -2  1 
C         62.00791       98.70917      119.41221
C         62.61705       98.21882      118.12864
O         63.63303       97.54194      118.19317
H         60.97738       98.31107      119.51763
H         62.60541       98.36407      120.28339
H         61.98955       99.81909      119.42139
N         62.08869       98.50110      116.90282
C         60.88443       99.30084      116.66977
C         61.17924      100.59212      115.90870
O         60.25205      101.36021      115.68995
C         59.80330       98.45075      115.96755
C         60.16691       97.94671      114.59588
O         61.36309       98.21773      114.04470
O         59.36021       97.27776      113.97102
H         62.58907       98.12116      116.08606
H         60.44217       99.62134      117.63440
H         58.87665       99.05832      115.87686
H         59.57388       97.57386      116.61096
N         62.44579      100.93571      115.53404
C         62.78006      102.23393      114.96004
C         62.28789      102.46350      113.53578
O         62.54951      103.55680      113.04943
C         64.30687      102.42249      114.98225
H         63.22505      100.30328      115.76413
H         62.35154      103.02471      115.61640
H         64.58590      103.43755      114.62498
H         64.68776      102.31600      116.02051
H         64.80321      101.66636      114.33663
N         61.59617      101.54381      112.78629
C         61.27789      101.83200      111.38394
C         60.18987      100.98004      110.75749
O         59.65773      100.07168      111.37530
C         62.58130      101.82166      110.53432
C         63.47715      100.59203      110.51774
O         63.16420       99.35574      110.96869
O         64.59170      100.73527      110.04197
H         61.31241      100.64688      113.19952
H         60.83885      102.85452      111.34256
H         63.22130      102.63263      110.93307
H         62.37308      102.10446      109.48227
N         59.76593      101.30376      109.50052
C         58.80249      100.54574      108.72411
C         59.40328       99.25778      108.21527
O         60.51691       98.91566      108.59010
H         60.15272      102.14666      109.05033
H         58.54859      101.14343      107.82195
H         57.86605      100.37462      109.29830
N         58.72306       98.50164      107.30753
C         59.25835       97.24781      106.78478
C         60.58420       97.42865      106.05715
O         60.95899       98.54223      105.71427
C         58.23209       96.54127      105.86891
C         57.89128       97.34212      104.62824
N         56.62738       97.77297      104.40732
O         58.76260       97.59511      103.80929
H         57.78937       98.82018      107.00478
H         59.44248       96.59037      107.66079
H         57.31147       96.35628      106.46332
H         58.62620       95.55159      105.55205
H         55.87292       97.57160      105.07894
H         56.40179       98.31444      103.55930
N         61.36330       96.33582      105.83409
C         62.64789       96.35969      105.15800
C         63.77473       96.17867      106.15737
O         63.51866       96.26627      107.34950
H         61.05096       95.42582      106.20589
H         62.82397       97.31960      104.62416
H         62.62665       95.54251      104.40780
N         65.06946       95.95718      105.79166
C         65.52980       95.72069      104.42848
C         66.14047       94.32189      104.27436
O         66.40061       93.95238      103.13691
C         66.52326       96.83422      103.99554
C         65.80418       98.16779      103.78492
O         67.52286       97.03182      104.96200
H         65.77387       95.92584      106.54500
H         64.68350       95.73606      103.71437
H         66.98471       96.57811      103.01352
H         68.10144       96.23332      104.95610
H         65.32103       98.51158      104.72326
H         66.53553       98.93899      103.45884
H         65.03258       98.06683      102.99197
N         66.41878       93.49440      105.33562
C         67.00394       92.15808      105.18133
C         66.29353       91.16776      106.11808
O         66.35691       91.38988      107.32001
C         68.52728       92.18370      105.53365
C         69.28152       93.23241      104.67853
C         69.14235       90.78361      105.32442
C         70.74962       93.41596      105.06721
H         66.27955       93.83238      106.29691
H         66.94196       91.84108      104.12271
H         68.63699       92.47080      106.60364
H         68.80902       94.21316      104.83306
H         69.20939       92.97869      103.59857
H         70.20544       90.75537      105.63279
H         68.61982       90.02636      105.93932
H         69.06655       90.48231      104.25719
H         70.82976       93.69171      106.14057
H         71.34333       92.50159      104.87283
H         71.18835       94.23653      104.46076
N         65.66489       90.02107      105.71067
C         65.41676       89.64212      104.32598
C         65.03804       88.16358      104.19420
O         64.14917       87.69442      104.88839
C         64.31923       90.55791      103.72409
C         63.01266       90.55455      104.48264
O         62.57337       91.68841      105.06183
O         62.32689       89.54775      104.54950
H         65.31658       89.38975      106.44936
H         66.34464       89.77303      103.73225
H         64.12922       90.27105      102.66765
H         64.69167       91.60143      103.71887
N         65.64022       87.39639      103.23469
C         65.21663       86.04080      102.89195
C         66.40823       85.09587      102.80161
O         67.34855       85.43300      102.09867
C         64.48613       86.09816      101.53314
C         63.97619       84.73819      101.11068
C         64.84110       83.80412      100.51027
C         62.63427       84.38526      101.32837
C         64.37334       82.54050      100.14356
C         62.17181       83.11638      100.96585
C         63.04044       82.19497      100.37456
H         66.35164       87.83371      102.63040
H         64.46013       85.67035      103.60520
H         65.11804       86.53186      100.72716
H         63.62250       86.78683      101.66896
H         65.87739       84.05250      100.32187
H         61.95133       85.08422      101.79468
H         65.04639       81.82883       99.68289
H         61.14010       82.84592      101.14726
H         62.68116       81.21340      100.09502
N         66.41151       83.84499      103.37390
C         65.35913       83.24811      104.18629
C         65.08144       84.02828      105.44762
O         63.92798       84.28981      105.75004
C         65.91511       81.86305      104.54702
C         66.73524       81.53858      103.32252
C         67.44500       82.86849      103.08383
H         64.44030       83.12934      103.56756
H         66.63883       81.94049      105.39075
H         65.13823       81.11669      104.82013
H         67.41035       80.66247      103.42069
H         66.02817       81.35410      102.48006
H         68.29021       83.01893      103.79049
H         67.79886       82.89803      102.03048
N         66.12089       84.47431      106.20568
C         65.93656       85.25574      107.41763
C         65.45708       84.33389      108.52909
O         66.17820       83.40022      108.85187
C         67.26494       85.93041      107.82650
C         67.75194       86.92163      106.75310
C         69.04198       87.56853      107.16167
O         69.10211       88.30881      108.28497
O         70.03822       87.44372      106.46716
H         67.07909       84.28261      105.87787
H         65.21991       86.07854      107.21227
H         68.04579       85.15599      107.99655
H         67.10613       86.48715      108.77658
H         66.99016       87.71244      106.60288
H         67.90126       86.40176      105.78236
N         64.26813       84.49248      109.17634
C         63.32247       85.54694      108.88735
H         62.43893       85.44924      109.55339
H         63.78904       86.53852      109.06330
H         62.97164       85.47202      107.83808
H         64.02079       83.82017      109.91942
Ca        61.32824       98.09483      111.33075
O         63.90820       96.35275      111.12323
H         64.60929       96.98339      110.82125
H         64.39174       95.68959      111.67655
O         61.22608       95.43804      109.35624
H         61.59139       96.33039      109.13237
H         61.97642       94.81309      109.19463
O         60.79525       95.00790      112.40720
H         61.40276       94.25059      112.21321
H         59.98859       94.58646      112.79730
O         58.52852       96.61544      110.46999
H         58.27786       95.94876      109.78212
H         57.87941       97.35310      110.34886

Ca 1.0



