%chk=apoCaM-CA-Ng.loop2.water4.frame1004.chk
%nprocshared=20
%mem=10GB
%nosave
#b3lyp/svp scf=(tight,noincore,xqc) Test 
#IOP(5/87=12) Density=Current Pop=(MK,readradii) iop(6/33=2) iop(6/42=6)

apoCaM-CA-Ng.loop2.water4.frame1004 

   -2  1 
C         37.08806       36.89176       39.38791
C         36.18742       35.69794       39.20380
O         36.03073       35.29889       38.05880
H         38.08567       36.64453       38.96527
H         36.67241       37.75351       38.82614
H         37.25561       37.20598       40.42946
N         35.57155       35.01784       40.21661
C         35.59780       35.33380       41.64613
C         34.17304       35.36726       42.20052
O         33.22942       35.26672       41.42751
C         36.50689       34.32711       42.38785
C         36.02775       32.91006       42.32509
O         35.96806       32.33380       41.25423
O         35.69935       32.25629       43.45547
H         35.03762       34.17855       39.94085
H         36.03685       36.32582       41.84478
H         36.59827       34.62513       43.45230
H         37.53093       34.37698       41.95754
N         33.94277       35.49113       43.54253
C         32.61555       35.55697       44.14612
C         31.75288       34.35930       43.75260
O         30.68570       34.54892       43.18462
C         31.95836       36.90400       43.80597
H         34.74440       35.53794       44.18677
H         32.73344       35.54251       45.25295
H         30.98149       36.99532       44.32719
H         32.61101       37.73478       44.15205
H         31.79503       37.01462       42.71421
N         32.15476       33.08828       44.05044
C         31.37948       31.88973       43.70546
C         31.99063       30.66324       44.38822
O         33.18828       30.44434       44.27129
C         31.24669       31.71098       42.16600
C         32.54748       31.40701       41.48178
O         33.03304       32.19093       40.68286
O         33.16406       30.24212       41.74682
H         33.03922       32.98005       44.57070
H         30.34661       32.02029       44.09910
H         30.80204       32.62559       41.72253
H         30.54335       30.87837       41.94882
N         31.23850       29.85928       45.18938
C         31.82542       28.80113       45.99792
C         32.35034       27.57348       45.26461
O         32.93415       26.74979       45.95481
H         30.23734       30.07054       45.31863
H         31.06391       28.43598       46.72067
H         32.65229       29.24719       46.59308
N         32.14623       27.31946       43.93289
C         32.57676       26.05983       43.30100
C         33.43171       26.33036       42.05141
O         33.79054       27.47411       41.82949
C         31.32119       25.19609       43.01798
C         31.57916       23.70020       42.91970
N         30.57334       22.86303       42.58297
O         32.67814       23.23014       43.18083
H         31.59895       27.98758       43.36947
H         33.19907       25.48087       44.01546
H         30.80869       25.57775       42.11442
H         30.61547       25.29618       43.87096
H         29.63440       23.22745       42.36980
H         30.73887       21.84644       42.52857
N         33.80661       25.33255       41.19294
C         34.71510       25.50165       40.06826
C         34.29316       26.54667       39.05533
O         35.05311       27.48782       38.88317
H         33.47840       24.37653       41.34129
H         34.84253       24.52950       39.54345
H         35.71075       25.78292       40.47548
N         33.15395       26.49669       38.30502
C         32.11055       25.48137       38.37188
C         31.96028       24.79521       37.01584
O         32.00915       23.57493       36.96870
C         30.78534       26.15865       38.79601
C         29.67194       25.13189       39.02376
O         30.97473       26.86878       39.99267
H         33.00535       27.27594       37.64552
H         32.35585       24.71439       39.13662
H         30.44044       26.86045       38.00075
H         31.30726       27.77288       39.75146
H         29.45647       24.56411       38.09471
H         29.96496       24.41818       39.82453
H         28.74222       25.65097       39.33906
N         31.79501       25.52956       35.87034
C         31.65780       24.98398       34.51785
C         30.31801       24.25811       34.36990
O         30.32178       23.05613       34.14223
C         32.89774       24.09488       34.13343
C         34.25809       24.75313       34.49076
C         32.87556       23.69204       32.64283
C         34.53614       26.08627       33.79631
H         31.79692       26.55642       35.94372
H         31.63868       25.83366       33.80262
H         32.86153       23.15207       34.72034
H         35.07707       24.04463       34.23619
H         34.31206       24.91866       35.58743
H         31.96994       23.11146       32.38132
H         32.90074       24.58370       31.98447
H         33.75035       23.04772       32.40971
H         33.76891       26.83968       34.06721
H         35.52590       26.46529       34.12725
H         34.56853       25.96481       32.69519
N         29.10404       24.87466       34.51048
C         28.88225       26.28534       34.82613
C         29.20322       27.27393       33.69272
O         30.06866       28.11523       33.89168
C         27.45491       26.52144       35.40899
C         26.23174       26.05566       34.64379
O         25.01420       26.32161       35.15251
O         26.30716       25.39696       33.62099
H         28.28044       24.25660       34.46482
H         29.53275       26.55039       35.68098
H         27.34857       27.61065       35.60507
H         27.40025       26.00142       36.39004
N         28.47542       27.31104       32.53910
C         28.52317       28.38808       31.54896
C         27.16689       29.09631       31.59637
O         26.16539       28.40121       31.47142
C         28.74408       27.79835       30.13821
C         28.72745       28.87500       29.07267
C         27.65413       28.95750       28.16652
C         29.77101       29.81298       28.98198
C         27.62026       29.96609       27.19866
C         29.73712       30.81538       28.00553
C         28.66103       30.89382       27.11739
H         27.76837       26.59006       32.38021
H         29.34482       29.10053       31.76779
H         27.92730       27.06845       29.94240
H         29.70324       27.23976       30.08407
H         26.83382       28.25271       28.21864
H         30.60941       29.76826       29.66552
H         26.78465       30.03021       26.51318
H         30.54330       31.53454       27.93862
H         28.63255       31.67340       26.36649
N         27.01021       30.44819       31.76310
C         28.06935       31.44670       31.80489
C         28.81284       31.45535       33.12428
O         28.53996       30.63611       33.98955
C         27.31498       32.75853       31.54244
C         25.99789       32.50829       32.23874
C         25.70183       31.07270       31.81819
H         28.80111       31.31134       30.98365
H         27.84443       33.69124       31.83059
H         27.08963       32.81702       30.45181
H         26.19548       32.52618       33.33499
H         25.18437       33.22918       32.01119
H         25.02910       30.60314       32.56868
H         25.24488       31.01813       30.80512
N         29.81871       32.35780       33.30897
C         30.66555       32.39519       34.49480
C         31.88417       33.29325       34.25341
O         32.09021       34.24529       34.99208
C         29.84607       32.79649       35.75374
C         29.12468       34.15306       35.63425
C         28.35698       34.45252       36.89020
O         27.14647       34.60361       36.84991
O         29.00290       34.56626       38.06714
H         30.01935       33.01815       32.54234
H         31.07851       31.37827       34.67303
H         30.52841       32.80712       36.63229
H         29.07739       32.02078       35.95172
H         28.42649       34.12756       34.76936
H         29.84332       34.98031       35.47275
N         32.78496       33.04701       33.25640
C         32.70146       31.93471       32.33049
H         31.79892       32.00808       31.69376
H         33.57980       31.94819       31.65100
H         32.69843       30.97239       32.88278
H         33.59547       33.67910       33.16199
Ca        35.26456       29.70928       41.16748
O         36.55828       30.05151       38.67281
H         36.82527       30.94515       39.00431
H         37.05745       29.41656       39.24668
O         37.87590       30.13453       43.66252
H         38.00534       29.74977       44.56559
H         38.48364       30.91569       43.63601
O         37.17760       27.58713       41.88896
H         37.51816       26.86075       42.46840
H         37.96292       27.87690       41.36041
O         35.44542       28.41712       44.78252
H         36.05930       27.67111       44.56726
H         35.60421       28.60014       45.74263

Ca 1.0



