%chk=apoCaM-CA-Ng.loop4.water6.frame864.chk
%nprocshared=20
%mem=10GB
%nosave
#b3lyp/svp scf=(tight,noincore,xqc) Test 
#IOP(5/87=12) Density=Current Pop=(MK,readradii) iop(6/33=2) iop(6/42=6)

apoCaM-CA-Ng.loop4.water6.frame864 

   -3  1 
C         58.39760       57.18298       70.92692
C         59.15458       57.60202       69.69905
O         59.97899       58.49920       69.79408
H         57.66578       56.37859       70.70057
H         59.10831       56.80350       71.68916
H         57.84687       58.05295       71.34210
N         58.93655       56.97632       68.50660
C         59.61913       57.30657       67.25917
C         61.13004       57.15957       67.42325
O         61.87626       58.09785       67.17773
C         59.17172       58.70277       66.76012
C         59.65206       59.04694       65.37110
O         60.32833       58.26680       64.71813
O         59.31188       60.23317       64.83334
H         58.25419       56.20267       68.47587
H         59.28384       56.56829       66.49545
H         59.51687       59.48712       67.46567
H         58.06021       58.72709       66.73361
N         61.63913       55.98208       67.87495
C         63.06744       55.74621       68.09029
C         63.84155       55.76465       66.76679
O         63.31571       55.22773       65.80157
C         63.31181       54.39322       68.83792
C         62.79202       53.14725       68.06593
C         62.74263       54.47422       70.26789
C         63.23172       51.82358       68.69181
H         60.96418       55.24043       68.10872
H         63.43986       56.53855       68.76437
H         64.40171       54.27170       68.94514
H         63.21001       53.14386       67.04028
H         61.68553       53.15586       67.98877
H         63.17276       55.35210       70.79715
H         61.63773       54.57213       70.26087
H         63.02019       53.58199       70.86264
H         62.87075       50.98336       68.06203
H         64.34090       51.77554       68.73959
H         62.81063       51.69026       69.70733
N         65.11277       56.26086       66.60888
C         65.92666       56.95052       67.61012
C         66.75209       58.02466       66.91776
O         67.59396       57.68346       66.09673
C         66.88597       55.96019       68.31595
C         67.71875       56.57712       69.41583
O         68.58656       55.80328       70.09457
O         67.61236       57.75702       69.71380
H         65.54914       56.11160       65.68448
H         65.28222       57.42382       68.37291
H         67.56516       55.50074       67.56536
H         66.31162       55.14588       68.78173
N         66.56522       59.34248       67.20121
C         67.36077       60.40400       66.60090
C         67.93782       61.29253       67.67269
O         69.14967       61.41146       67.78427
H         65.81491       59.60391       67.85814
H         66.70699       61.02692       65.95476
H         68.17624       59.99701       65.96384
N         67.08939       61.97954       68.48356
C         67.50967       62.91460       69.51895
C         68.39942       62.27056       70.56580
O         69.47234       62.80378       70.81698
C         66.28719       63.62307       70.15955
C         65.29821       62.73208       70.87517
O         64.71970       61.83559       70.28350
O         64.99039       62.96903       72.16410
H         66.08185       61.85982       68.31215
H         68.09661       63.72767       69.03286
H         65.74038       64.15765       69.35329
H         66.66042       64.38992       70.87447
N         68.04196       61.12501       71.21457
C         68.86874       60.55680       72.26786
C         68.80745       61.36818       73.55013
O         69.57982       61.07834       74.45134
H         67.17918       60.63142       70.94363
H         69.91662       60.47848       71.90138
H         68.52251       59.53058       72.51550
N         67.87407       62.35398       73.73010
C         67.72926       63.16819       74.93337
C         67.37895       62.36269       76.17920
O         67.34405       62.95889       77.24798
C         68.97246       64.07217       75.13169
C         69.19992       65.02516       73.93553
C         68.12197       66.07617       73.74496
N         68.17998       66.91298       72.68408
O         67.20230       66.18905       74.54239
H         67.21086       62.55355       72.97700
H         66.85904       63.83993       74.79302
H         69.87325       63.43828       75.26521
H         68.86251       64.68939       76.05029
H         69.28676       64.42206       73.00799
H         70.16157       65.56121       74.08198
H         68.94324       66.83890       71.99633
H         67.45336       67.63144       72.54475
N         67.02501       61.04231       76.12566
C         66.63931       60.27197       77.30752
C         65.16992       59.86734       77.28844
O         64.70309       59.38351       78.30914
C         67.54391       59.01706       77.47864
C         67.45317       58.04877       76.28130
C         69.00394       59.41964       77.71609
H         66.99029       60.57025       75.21340
H         66.75125       60.90088       78.21804
H         67.20422       58.46639       78.38399
H         66.40467       57.72422       76.11357
H         67.83667       58.51192       75.34831
H         68.06162       57.14096       76.47817
H         69.07835       60.06713       78.61513
H         69.62612       58.51539       77.88810
H         69.41311       59.96931       76.84410
N         64.38982       59.99002       76.17348
C         62.99581       59.56082       76.12848
C         62.12174       60.67314       75.54683
O         62.63540       61.70087       75.13000
C         62.95746       58.24823       75.30544
C         61.60778       57.58262       75.21244
N         61.03391       57.35513       74.00766
O         61.03080       57.23626       76.23313
H         64.80312       60.32465       75.29325
H         62.62290       59.33527       77.15147
H         63.63730       57.51733       75.79712
H         63.35512       58.44785       74.28779
H         61.50825       57.62891       73.13474
H         60.11174       56.89957       73.94621
N         60.77204       60.50814       75.48074
C         59.84282       61.44653       74.86924
C         58.74268       61.75714       75.86699
O         58.19587       60.82257       76.42711
C         59.29014       60.77223       73.59726
C         58.30588       61.62846       72.84039
C         57.01641       61.14274       72.57761
C         58.66610       62.90445       72.37368
C         56.09641       61.92143       71.87192
C         57.74356       63.68465       71.67111
C         56.45670       63.19812       71.41872
O         55.57893       63.96203       70.73841
H         60.36410       59.64144       75.84935
H         60.35471       62.38244       74.56033
H         58.82624       59.79752       73.86960
H         60.14481       60.55389       72.91974
H         56.72671       60.15716       72.91556
H         59.65786       63.29902       72.55230
H         55.10588       61.53041       71.67746
H         58.03109       64.66797       71.32093
H         54.68011       63.66123       70.54279
N         58.36851       63.03955       76.14791
C         57.36719       63.37305       77.15855
C         56.16937       64.04884       76.50013
O         56.11917       65.27035       76.49806
C         58.03969       64.24823       78.25103
C         57.19663       64.45178       79.53072
C         55.97299       65.30322       79.34942
O         56.08055       66.47039       79.00704
O         54.75167       64.79206       79.59664
H         58.82110       63.81481       75.64002
H         57.02590       62.46969       77.69526
H         58.36999       65.22589       77.83542
H         58.95293       63.70463       78.57887
H         57.83057       64.94879       80.29632
H         56.90294       63.45610       79.92789
N         55.15094       63.36850       75.89130
C         55.03672       61.91886       75.73489
C         54.94027       61.19996       77.06892
O         54.24196       61.66681       77.95870
C         53.78745       61.58501       74.88965
C         53.74900       60.10475       74.47983
C         52.56217       59.80402       73.61895
O         51.69863       58.83946       73.98590
O         52.39321       60.40403       72.56924
H         54.39918       63.94713       75.48129
H         55.91826       61.56076       75.16342
H         53.82383       62.19091       73.95744
H         52.86375       61.85802       75.44788
H         53.71930       59.44895       75.37504
H         54.66264       59.86277       73.90117
N         55.59250       60.01889       77.25383
C         55.55469       59.29224       78.50245
H         56.00852       59.90624       79.30865
H         54.50705       59.03729       78.76638
H         56.13647       58.34994       78.40566
H         56.12114       59.60464       76.47219
Ca        50.00467       58.23774       72.62378
O         48.38659       55.62173       72.53269
H         48.92032       54.79801       72.40228
H         47.44513       55.32165       72.47171
O         48.64352       58.08631       69.91314
H         49.25104       57.60200       69.29950
H         47.83404       57.51847       69.96226
O         49.15053       61.02709       71.80133
H         48.48644       60.76155       71.11668
H         48.61628       61.17021       72.62242
O         47.31532       58.91525       73.84469
H         46.79955       58.28061       74.40240
H         47.57227       59.64155       74.46677
O         51.95451       58.43795       70.05652
H         52.37577       58.40910       70.95093
H         52.36165       57.67609       69.57378
O         49.60392       57.07179       75.47906
H         48.73019       57.20526       75.92481
H         50.25779       57.51412       76.07673

Ca 1.0



