%chk=apoCaM-CA-Ng.loop3.water2.frame970.chk
%nprocshared=20
%mem=10GB
%nosave
#b3lyp/svp scf=(tight,noincore,xqc) Test 
#IOP(5/87=12) Density=Current Pop=(MK,readradii) iop(6/33=2) iop(6/42=6)

apoCaM-CA-Ng.loop3.water2.frame970 

   0  1 
C         81.19269       26.85483       63.77668
C         81.85222       26.53378       65.08637
O         81.15023       26.33903       66.06883
H         80.58928       27.77985       63.86977
H         81.94226       26.99286       62.96897
H         80.52826       26.01197       63.48698
N         83.20694       26.40632       65.16161
C         83.87941       25.91500       66.35547
C         84.04450       27.02425       67.39143
O         84.73613       27.99416       67.11461
C         85.20513       25.24458       65.93654
C         85.80366       24.42191       67.02736
O         86.95729       24.58763       67.35610
O         85.10436       23.45385       67.62712
H         83.75422       26.51728       64.29409
H         83.25092       25.10572       66.75838
H         85.92621       26.00201       65.55937
H         84.99576       24.54147       65.11068
N         83.38597       26.97014       68.58907
C         83.40297       28.06245       69.56500
C         84.71854       28.13718       70.34292
O         84.95919       29.16523       70.95973
C         82.20166       27.95695       70.54353
C         80.84652       27.95750       69.79974
C         79.65560       27.75718       70.74840
C         78.35022       27.59712       69.94871
N         77.21277       27.33598       70.83041
H         82.77384       26.16683       68.76495
H         83.27260       29.01523       69.00332
H         82.21653       28.81428       71.25363
H         82.29760       27.01669       71.12991
H         80.82692       27.12191       69.07222
H         80.72191       28.90980       69.23822
H         79.57508       28.61795       71.44827
H         79.81709       26.82942       71.33909
H         78.45729       26.74069       69.24487
H         78.15429       28.51548       69.35182
H         76.35567       27.19285       70.24797
H         77.38311       26.46894       71.39051
H         77.05758       28.14773       71.47049
N         85.59983       27.09086       70.38979
C         86.89969       27.14461       71.07200
C         88.05877       26.87853       70.10638
O         89.19754       26.88941       70.55248
C         86.91204       26.21333       72.31646
C         86.47945       24.80764       72.02603
O         85.43630       24.38575       72.49841
O         87.16612       24.04445       71.16595
H         85.34262       26.20553       69.92804
H         87.08943       28.16406       71.47194
H         86.19457       26.64003       73.05155
H         87.91618       26.21275       72.79310
N         87.86370       26.70749       68.76513
C         88.94852       26.57954       67.79711
C         89.80838       25.32634       67.91006
O         90.76519       25.24532       67.15318
H         86.91054       26.75943       68.38254
H         89.60030       27.47265       67.88917
H         88.51878       26.58978       66.76960
N         89.55512       24.31636       68.79590
C         90.42874       23.15541       68.95925
C         89.70806       21.84419       68.68409
O         88.70892       21.55066       69.32647
C         90.98729       23.10269       70.39528
C         91.85929       24.28775       70.72192
N         91.58176       25.08050       71.78262
O         92.84385       24.51913       70.03563
H         88.73156       24.37728       69.40173
H         91.30410       23.21924       68.27643
H         91.61803       22.19196       70.49908
H         90.14987       23.02222       71.12333
H         90.76721       24.89382       72.38527
H         92.19356       25.87785       72.01139
N         90.25397       20.95179       67.80929
C         89.79619       19.58206       67.65673
C         88.43609       19.44713       67.01715
O         88.25986       19.88859       65.89057
H         91.11536       21.21132       67.30476
H         89.82740       19.07950       68.64856
H         90.51351       19.04215       67.00051
N         87.45207       18.74882       67.65447
C         86.17354       18.40770       67.03153
C         85.32495       19.64525       66.76493
O         85.71904       20.73618       67.14688
C         85.37296       17.38977       67.89431
C         86.01775       16.01826       67.99667
C         87.07262       15.75288       68.89163
C         85.53017       14.96467       67.19970
C         87.63003       14.47286       68.97434
C         86.09207       13.68764       67.28200
C         87.14263       13.43633       68.16771
O         87.66941       12.19720       68.23995
H         87.65685       18.39570       68.59540
H         86.38013       17.92057       66.05245
H         84.39009       17.23898       67.40404
H         85.14286       17.78295       68.90580
H         87.46129       16.51458       69.54833
H         84.71544       15.13074       66.50582
H         88.43728       14.28674       69.67182
H         85.70682       12.89141       66.65749
H         88.39295       11.97964       68.84490
N         84.13684       19.52464       66.08885
C         83.21028       20.61286       65.76992
C         82.62918       21.22438       67.03645
O         83.38143       21.64470       67.89480
C         83.85554       21.68874       64.84520
C         82.85965       22.82633       64.46914
C         84.45081       21.05056       63.57850
C         81.60384       22.39145       63.70800
H         83.86288       18.58984       65.75358
H         82.37353       20.16655       65.19192
H         84.69777       22.16767       65.38280
H         83.38580       23.57355       63.83785
H         82.53157       23.34357       65.39384
H         84.91869       21.83161       62.94141
H         85.24204       20.31914       63.84543
H         83.67421       20.52111       62.98972
H         80.98654       21.69438       64.30648
H         80.98233       23.28685       63.49553
H         81.86478       21.91794       62.74067
N         81.28434       21.29392       67.23197
C         80.69089       21.90135       68.41891
C         79.25845       21.47161       68.57563
O         78.39905       21.87263       67.80062
C         80.75117       23.44627       68.40717
O         81.93378       23.91376       68.98094
H         80.66133       20.86053       66.53317
H         81.22589       21.52784       69.31818
H         79.94302       23.86232       69.04765
H         80.57213       23.86581       67.38883
H         82.64210       23.81706       68.31040
N         78.94841       20.64200       69.60650
C         77.60546       20.23816       69.96406
C         77.39056       20.49387       71.46390
O         78.34494       20.87018       72.13426
C         77.46793       18.75450       69.59527
H         79.71830       20.25736       70.17786
H         76.86729       20.82908       69.37879
H         77.63997       18.64152       68.50174
H         78.22835       18.14996       70.13234
H         76.47021       18.33630       69.81594
N         76.19751       20.32716       72.10465
C         74.94624       19.96789       71.45707
C         74.45832       18.61466       71.96104
O         74.92996       18.17512       72.99979
C         73.91478       21.06312       71.73739
H         76.17380       20.48812       73.12458
H         75.10360       19.91885       70.37121
H         73.74607       21.15916       72.83187
H         74.29150       22.03559       71.35312
H         72.94411       20.84451       71.24964
N         73.57289       17.83195       71.26942
C         73.01336       18.15510       69.95871
C         73.62610       17.30365       68.85643
O         73.48331       17.67618       67.70088
C         71.46753       18.08552       69.93071
C         70.84783       16.67698       70.06193
C         71.00730       16.06749       71.42355
O         71.57846       14.99640       71.55538
O         70.50349       16.69147       72.50546
H         73.36108       16.91451       71.68203
H         73.26329       19.19585       69.69415
H         71.14564       18.47701       68.94028
H         71.04341       18.76231       70.70389
H         71.27403       16.00629       69.28373
H         69.75713       16.75953       69.87114
N         74.31091       16.15192       69.12482
C         74.93246       15.33899       68.09983
H         76.00848       15.21343       68.34189
H         74.44916       14.33994       68.07812
H         74.85442       15.79287       67.09009
H         74.39129       15.80485       70.08887
Ca        85.80214       23.04705       69.70958
O         83.08931       22.59458       71.34142
H         82.12801       22.41724       71.49729
H         83.16468       23.58141       71.36519
O         84.44749       20.07237       70.16727
H         83.51857       19.72918       70.17983
H         84.95396       19.44387       70.74032

Ca 1.0



