%chk=apoCaM-CA-Ng.loop4.water8.frame899.chk
%nprocshared=20
%mem=10GB
%nosave
#b3lyp/svp scf=(tight,noincore,xqc) Test 
#IOP(5/87=12) Density=Current Pop=(MK,readradii) iop(6/33=2) iop(6/42=6)

apoCaM-CA-Ng.loop4.water8.frame899 

   -3  1 
C        -14.67611        9.32176       36.12172
C        -15.48100        8.37214       35.28761
O        -14.97062        7.31233       34.95735
H        -13.75594        9.61114       35.57292
H        -15.25276       10.23800       36.36554
H        -14.39122        8.82079       37.07146
N        -16.76350        8.67243       34.92773
C        -17.61950        7.77648       34.15909
C        -17.78055        6.47567       34.92908
O        -17.37913        5.42052       34.45825
C        -17.07954        7.61043       32.71961
C        -18.03780        6.85082       31.84390
O        -17.68674        5.81774       31.29717
O        -19.28372        7.32156       31.63993
H        -17.17047        9.56745       35.23948
H        -18.62363        8.24970       34.06815
H        -16.08993        7.10698       32.72434
H        -16.95435        8.61832       32.27029
N        -18.35852        6.51267       36.16164
C        -18.51057        5.35516       37.03711
C        -19.98225        5.01104       37.19074
O        -20.78465        5.92530       37.32045
C        -17.84704        5.58664       38.43012
C        -18.39596        6.84115       39.16688
C        -16.31691        5.64310       38.27773
C        -17.92649        6.95554       40.61704
H        -18.72413        7.41904       36.48961
H        -17.99676        4.48471       36.60340
H        -18.08039        4.68991       39.04781
H        -19.50191        6.79505       39.21121
H        -18.10515        7.76673       38.62603
H        -15.95082        4.72044       37.77796
H        -16.01044        6.52257       37.67458
H        -15.81629        5.68734       39.26521
H        -18.24227        6.05855       41.19112
H        -16.82754        7.07369       40.68605
H        -18.39193        7.85126       41.08070
N        -20.44878        3.72759       37.24287
C        -19.63892        2.50934       37.14679
C        -19.05089        2.36651       35.75374
O        -17.84881        2.17918       35.62263
C        -20.49729        1.27028       37.48094
C        -21.03696        1.29050       38.89312
O        -20.76501        2.30888       39.73518
O        -21.72672        0.36358       39.28509
H        -21.46419        3.61544       37.39617
H        -18.81855        2.53462       37.89991
H        -19.87020        0.35809       37.37531
H        -21.34892        1.19810       36.77051
N        -19.84455        2.52825       34.66279
C        -19.33571        2.57312       33.30602
C        -19.08305        1.21039       32.71833
O        -20.01239        0.41560       32.68586
H        -20.84001        2.75682       34.80641
H        -18.45354        3.24548       33.24032
H        -20.12606        3.02170       32.66625
N        -17.89308        0.92093       32.11068
C        -17.72054       -0.25940       31.26389
C        -16.54352       -1.14886       31.62155
O        -16.45449       -2.21264       31.02315
C        -17.64271        0.17538       29.77657
C        -16.48145        1.07839       29.42836
O        -16.36479        2.30000       29.98349
O        -15.66868        0.72870       28.58778
H        -17.14136        1.62320       32.14767
H        -18.61690       -0.91117       31.34886
H        -18.57789        0.71300       29.51254
H        -17.59189       -0.73630       29.14048
N        -15.59280       -0.82025       32.54423
C        -14.46547       -1.70542       32.81523
C        -13.54134       -1.90298       31.61762
O        -12.64442       -2.72723       31.71876
H        -15.66072        0.06080       33.07286
H        -14.86706       -2.69337       33.13179
H        -13.85812       -1.30216       33.65430
N        -13.67460       -1.17259       30.46707
C        -12.82781       -1.31595       29.28494
C        -11.37718       -0.95005       29.55476
O        -10.53040       -1.24119       28.72015
C        -13.02516       -2.68686       28.59394
C        -14.47412       -2.82221       28.08640
C        -14.68647       -4.06910       27.26918
N        -15.62222       -4.98008       27.62456
O        -14.02648       -4.24491       26.25560
H        -14.39579       -0.44698       30.41578
H        -13.14818       -0.56438       28.52974
H        -12.76185       -3.52902       29.26863
H        -12.35500       -2.73218       27.70717
H        -14.71641       -1.95506       27.43377
H        -15.17002       -2.80703       28.94744
H        -16.20231       -4.84457       28.46524
H        -15.77749       -5.82036       27.04795
N        -11.04245       -0.17946       30.63042
C         -9.70643        0.35585       30.86113
C         -9.69726        1.88674       30.82971
O         -8.61616        2.44695       30.93392
C         -9.14320       -0.15583       32.22069
C        -10.00917        0.27051       33.42357
C         -8.98269       -1.68144       32.21268
H        -11.77746        0.08508       31.29883
H         -9.01428        0.02444       30.05516
H         -8.12936        0.28037       32.36239
H        -11.02274       -0.17983       33.37915
H         -9.53617       -0.06144       34.37148
H        -10.11069        1.37453       33.46521
H         -9.96354       -2.18507       32.08471
H         -8.30919       -1.99052       31.38572
H         -8.53348       -2.02281       33.17004
N        -10.84877        2.62945       30.75710
C        -10.86875        4.08372       30.90856
C        -11.70364        4.73734       29.80284
O        -12.31965        4.02452       29.02397
C        -11.37647        4.34526       32.34038
C        -11.32325        5.76930       32.81210
N        -12.42200        6.35114       33.34287
O        -10.26975        6.38656       32.76722
H        -11.76269        2.16154       30.71825
H         -9.83492        4.48497       30.82935
H        -10.71184        3.77653       33.02724
H        -12.40257        3.93099       32.45019
H        -13.31141        5.83448       33.40934
H        -12.38378        7.31876       33.69423
N        -11.69641        6.09601       29.62140
C        -12.32649        6.72144       28.44933
C        -11.67743        8.04629       28.08412
O        -10.90891        8.58313       28.86857
C        -13.85871        6.90232       28.62126
C        -14.23657        8.07828       29.51180
C        -13.83554        8.13070       30.85269
C        -14.98894        9.14929       28.99151
C        -14.16030        9.22835       31.65786
C        -15.32378       10.24276       29.79756
C        -14.90650       10.29061       31.13046
O        -15.22883       11.35650       31.89166
H        -11.09218        6.65469       30.23754
H        -12.12758        6.04718       27.58694
H        -14.31462        5.96353       29.00064
H        -14.28840        7.08468       27.61203
H        -13.26543        7.32342       31.26570
H        -15.31662        9.14422       27.95978
H        -13.83385        9.25213       32.68995
H        -15.90514       11.05640       29.38313
H        -14.95712       11.43024       32.81791
N        -11.93488        8.61826       26.86975
C        -11.35563        9.89166       26.46737
C        -12.47078       10.82542       26.00707
O        -13.01606       10.58351       24.93961
C        -10.31485        9.68023       25.34856
C         -9.16153        8.77623       25.81662
C         -8.15212        8.57295       24.72496
O         -7.91624        7.44974       24.30868
O         -7.49007        9.62627       24.20961
H        -12.53741        8.11975       26.19810
H        -10.80573       10.32923       27.31456
H         -9.90045       10.66887       25.04975
H        -10.80346        9.21752       24.46258
H         -9.56406        7.78650       26.12489
H         -8.65329        9.23629       26.69161
N        -12.93259       11.87951       26.74784
C        -12.48824       12.18763       28.10425
C        -11.04299       12.64234       28.15803
O        -10.46100       12.96100       27.12896
C        -13.41663       13.22767       28.77764
C        -13.38369       14.61839       28.11626
C        -14.34846       15.55321       28.78639
O        -13.90348       16.69086       29.35236
O        -15.54171       15.29573       28.80370
H        -13.71972       12.41594       26.35138
H        -12.58345       11.24500       28.68867
H        -13.13466       13.33407       29.84806
H        -14.45520       12.83568       28.73984
H        -13.66286       14.55252       27.04493
H        -12.35865       15.04133       28.18496
N        -10.38541       12.64266       29.34808
C         -8.99386       13.01601       29.45886
H         -8.37379       12.36466       28.80557
H         -8.86270       14.07699       29.16125
H         -8.65253       12.88950       30.50817
H        -10.87920       12.33369       30.19958
Ca       -15.34708       18.14436       30.31270
O        -13.43937       17.26849       32.64718
H        -13.63658       16.46556       32.10253
H        -13.98510       17.15201       33.46499
O        -17.87147       18.01621       28.25882
H        -17.16212       17.33360       28.35443
H        -18.59087       17.55569       27.75902
O        -17.98189       20.40064       30.19452
H        -18.21894       21.16814       30.77321
H        -18.75795       19.78967       30.26328
O        -15.17367       20.13782       27.79919
H        -14.92020       19.41583       27.17082
H        -14.42956       20.78870       27.74310
O        -17.27085       17.05706       32.48888
H        -17.60030       16.47547       31.75830
H        -16.50070       16.56453       32.86921
O        -12.50036       19.45224       29.90701
H        -11.94040       18.63794       29.96933
H        -12.28962       19.83030       29.01659
O        -15.16389       21.83517       30.52104
H        -15.86401       22.53310       30.46406
H        -14.33931       22.28414       30.20703
O        -15.46738       19.81258       33.03553
H        -14.79990       19.90471       33.76104
H        -15.99321       20.65066       33.07300

Ca 1.0



