%chk=apoCaM-CA-Ng.loop3.water4.frame18.chk
%nprocshared=20
%mem=10GB
%nosave
#b3lyp/svp scf=(tight,noincore,xqc) Test 
#IOP(5/87=12) Density=Current Pop=(MK,readradii) iop(6/33=2) iop(6/42=6)

apoCaM-CA-Ng.loop3.water4.frame18 

   0  1 
C         84.73742       43.92253       76.42797
C         85.90962       44.83792       76.61048
O         86.97223       44.57367       76.06768
H         83.89510       44.47996       75.96782
H         85.00360       43.06190       75.77934
H         84.41712       43.53603       77.41939
N         85.77939       45.93996       77.39729
C         86.85596       46.87240       77.70593
C         87.97893       46.15435       78.44075
O         89.13906       46.24282       78.06212
C         87.33031       47.64221       76.45677
C         86.19555       48.36770       75.78846
O         85.90992       48.12245       74.62741
O         85.49376       49.29837       76.46383
H         84.86368       46.11726       77.83991
H         86.44778       47.62676       78.41771
H         87.80898       46.94884       75.73340
H         88.08147       48.39635       76.76608
N         87.66570       45.43419       79.55080
C         88.63951       44.82003       80.45216
C         89.11926       43.44901       79.98060
O         89.86233       42.81311       80.71572
C         88.01244       44.74670       81.86280
C         87.67402       46.16845       82.35695
C         86.93426       46.16714       83.69417
C         86.62424       47.59388       84.18953
N         85.77183       48.34667       83.26261
H         86.67031       45.40887       79.82396
H         89.53260       45.47800       80.54789
H         88.72294       44.28169       82.58088
H         87.09275       44.12173       81.82216
H         87.02044       46.66519       81.61620
H         88.61374       46.75674       82.44620
H         87.56251       45.65864       84.45677
H         85.98308       45.60086       83.58732
H         87.57327       48.15096       84.35300
H         86.10276       47.50900       85.16760
H         86.28409       48.57102       82.37996
H         84.90170       47.80861       83.04581
H         85.50605       49.25475       83.70672
N         88.78838       42.94945       78.75399
C         89.27098       41.67080       78.22923
C         90.79044       41.62422       78.29010
O         91.42408       42.58210       77.87116
C         88.77272       41.51186       76.77336
C         89.05208       40.17240       76.14896
O         88.68517       39.96700       75.00384
O         89.66997       39.18883       76.83088
H         88.19455       43.51900       78.13843
H         88.84104       40.84367       78.83654
H         89.22867       42.30632       76.14169
H         87.66882       41.64579       76.75906
N         91.44213       40.54914       78.82723
C         92.88620       40.50861       79.02019
C         93.71372       40.66440       77.75868
O         94.92188       40.80562       77.88698
H         90.89239       39.74190       79.15842
H         93.17586       39.55508       79.51422
H         93.15309       41.34163       79.70409
N         93.16209       40.65807       76.51362
C         93.94075       40.92768       75.31220
C         94.41654       42.36831       75.31431
O         95.59857       42.60969       75.11452
C         93.09475       40.69160       74.04107
C         92.58006       39.27742       73.96352
N         93.43325       38.22747       73.93561
O         91.37582       39.07917       73.92666
H         92.15714       40.46348       76.40679
H         94.81258       40.23823       75.26183
H         93.72185       40.88420       73.14436
H         92.23441       41.39747       74.01874
H         94.45255       38.36901       73.95730
H         93.07503       37.26428       73.89555
N         93.51670       43.37713       75.50338
C         93.81968       44.79184       75.33769
C         92.93024       45.34465       74.24503
O         91.97370       44.67939       73.89241
H         92.54059       43.12625       75.71473
H         94.88192       44.92497       75.04566
H         93.65403       45.35210       76.28153
N         93.21665       46.52845       73.63052
C         92.54423       47.05514       72.43460
C         92.73303       46.11951       71.24628
O         93.50122       46.47231       70.36536
C         91.06023       47.41312       72.62372
C         90.84553       48.53769       73.59843
C         90.70287       49.85339       73.12542
C         90.74950       48.28658       74.97518
C         90.46195       50.90174       74.01484
C         90.49924       49.33771       75.86356
C         90.34898       50.64823       75.38462
O         90.08868       51.66775       76.22701
H         94.02931       47.06091       73.97858
H         93.07071       48.00292       72.17125
H         90.42404       46.54698       72.89947
H         90.69416       47.75232       71.62859
H         90.77876       50.06842       72.06625
H         90.84580       47.27788       75.35719
H         90.35320       51.91027       73.63584
H         90.41082       49.13112       76.92234
H         89.97322       51.53247       77.17804
N         92.04510       44.93899       71.14049
C         92.26281       43.87792       70.16343
C         93.54079       43.10756       70.49480
O         93.43112       41.91599       70.75044
C         92.12412       44.34761       68.69195
C         90.83694       45.19434       68.46887
C         92.14668       43.13380       67.74143
C         89.51460       44.49727       68.81931
H         91.28202       44.75108       71.79680
H         91.44140       43.13862       70.31476
H         92.98816       44.99226       68.42762
H         90.79522       45.51077       67.40453
H         90.89992       46.11928       69.08056
H         92.05033       43.46677       66.68689
H         93.09942       42.57390       67.83911
H         91.31823       42.42897       67.96741
H         88.67215       45.19450       68.62588
H         89.35639       43.59178       68.19993
H         89.47579       44.22146       69.89332
N         94.76752       43.70504       70.58696
C         95.94783       42.98635       71.04922
C         96.56867       42.16540       69.94481
O         97.42264       41.34733       70.25792
C         97.00170       43.95687       71.63367
O         96.52582       44.71544       72.72184
H         94.87053       44.70491       70.41428
H         95.64142       42.30644       71.87756
H         97.34585       44.65194       70.83858
H         97.87149       43.36496       71.99229
H         95.55699       44.55225       72.85062
N         96.18751       42.30448       68.63498
C         96.69299       41.46828       67.55479
C         96.28329       40.01482       67.74266
O         96.74851       39.17723       66.98369
C         98.21609       41.62797       67.39852
H         95.49212       43.01877       68.37635
H         96.24522       41.80806       66.59443
H         98.46550       42.69782       67.23382
H         98.77772       41.26254       68.28033
H         98.56995       41.05453       66.51537
N         95.38181       39.64667       68.70629
C         94.98556       38.27265       68.94724
C         93.51096       38.08408       68.68309
O         92.77077       39.05313       68.58398
C         95.28320       37.92186       70.41000
H         94.93185       40.35564       69.29760
H         95.54949       37.58638       68.28091
H         95.00928       36.86997       70.63221
H         96.36223       38.06408       70.62744
H         94.70140       38.58783       71.08830
N         93.02400       36.81923       68.55209
C         91.61506       36.48744       68.40388
C         91.00281       37.21226       67.21724
O         90.01111       37.91208       67.37707
C         90.87356       36.74815       69.73736
C         91.55077       35.97737       70.88644
C         90.87933       36.14715       72.21481
O         89.79856       36.93254       72.36928
O         91.33475       35.56587       73.18580
H         93.69084       36.03273       68.57621
H         91.54226       35.39491       68.20208
H         89.81970       36.40618       69.63735
H         90.87332       37.83471       69.97374
H         92.59753       36.33033       71.00511
H         91.56549       34.89459       70.63958
N         91.57099       37.09389       65.98477
C         91.06486       37.76391       64.80303
H         90.14846       38.35633       65.00916
H         91.84238       38.45176       64.40919
H         90.82524       37.00885       64.02599
H         92.41602       36.51272       65.87601
Ca        89.00939       37.13806       74.47080
O         86.22408       37.34877       73.57282
H         86.56267       36.92809       72.74265
H         86.60808       38.26171       73.56180
O         88.29592       36.34609       77.25923
H         88.37690       35.47751       77.72704
H         87.37445       36.65147       77.45381
O         91.52471       36.50186       76.42632
H         92.27511       36.86315       76.96175
H         91.91079       35.72401       75.95068
O         88.62829       34.17001       74.58767
H         89.19547       33.95526       73.80518
H         89.22075       34.03259       75.36904

Ca 1.0



