%chk=apoCaM-CA-Ng.loop4.water4.frame169.chk
%nprocshared=20
%mem=10GB
%nosave
#b3lyp/svp scf=(tight,noincore,xqc) Test 
#IOP(5/87=12) Density=Current Pop=(MK,readradii) iop(6/33=2) iop(6/42=6)

apoCaM-CA-Ng.loop4.water4.frame169 

   -3  1 
C         67.20997       52.17468       15.89240
C         66.07636       51.39554       15.29891
O         66.27691       50.23102       15.00606
H         68.05666       52.20760       15.17596
H         66.90515       53.21027       16.14584
H         67.54614       51.66772       16.82324
N         64.84430       51.95788       15.13090
C         63.66822       51.23045       14.66338
C         63.33231       50.08415       15.59458
O         63.29531       48.94496       15.17428
C         63.65863       50.93493       13.13383
C         64.87009       50.41791       12.37763
O         65.43050       49.20209       12.54698
O         65.31282       51.11393       11.47683
H         64.70836       52.93779       15.42140
H         62.78379       51.89918       14.77935
H         63.43918       51.92159       12.66435
H         62.78311       50.29069       12.90173
N         63.02921       50.37757       16.89522
C         62.60865       49.46623       17.96269
C         61.20304       48.90767       17.72931
O         60.31434       49.27624       18.48585
C         63.67257       48.38884       18.30571
C         63.29117       47.56400       19.56937
C         65.06043       49.03272       18.48460
C         63.18885       48.37125       20.87404
H         63.09807       51.37041       17.17011
H         62.52673       50.11444       18.86202
H         63.74482       47.67576       17.45901
H         64.05858       46.77434       19.72041
H         62.32022       47.05211       19.39862
H         65.39751       49.50289       17.53898
H         65.05051       49.81540       19.26995
H         65.80789       48.26663       18.76184
H         64.15629       48.85265       21.12640
H         62.39823       49.14534       20.82240
H         62.92245       47.69119       21.70898
N         60.90344       48.04592       16.71323
C         59.53968       47.61675       16.42913
C         59.07675       46.50996       17.38318
O         58.09469       46.74960       18.07125
C         59.34808       47.29392       14.92394
C         59.60229       48.50672       14.06532
O         60.46203       48.48199       13.19970
O         58.86724       49.62215       14.23435
H         61.63905       47.72675       16.07821
H         58.85991       48.48592       16.58946
H         58.29972       46.96999       14.75057
H         60.01604       46.49381       14.57026
N         59.66990       45.28226       17.51692
C         60.85598       44.86702       16.78766
C         61.26422       43.41962       17.01226
O         60.61859       42.73443       17.79244
H         59.23478       44.62382       18.18096
H         61.68925       45.53452       17.07671
H         60.62395       44.93272       15.73390
N         62.33031       42.83923       16.37131
C         63.24579       43.46924       15.41191
C         63.91126       44.68019       16.04998
O         63.71536       45.78605       15.56988
C         62.57177       43.77283       14.05165
C         61.90402       42.55142       13.48417
O         62.62184       41.43962       13.23440
O         60.70667       42.56223       13.24621
H         62.53332       41.85420       16.60489
H         64.04372       42.73857       15.15248
H         63.35013       44.11355       13.33529
H         61.83746       44.58901       14.11593
N         64.67673       44.58150       17.17579
C         65.08012       43.32872       17.78407
C         64.46266       43.12825       19.13570
O         63.73823       43.98150       19.62947
H         65.01352       45.44454       17.62409
H         66.18773       43.30535       17.86627
H         64.79044       42.45757       17.17246
N         64.69530       41.95109       19.77272
C         64.09882       41.59655       21.05213
C         64.83551       42.22297       22.23339
O         64.32929       42.11158       23.34146
C         63.82278       40.06805       21.13545
C         65.00806       39.10619       20.91579
C         66.03716       39.16359       21.99946
N         65.72689       38.78647       23.25838
O         67.17426       39.51183       21.73291
H         65.28131       41.26722       19.27920
H         63.07755       42.04179       21.08352
H         63.09675       39.83664       20.32427
H         63.31592       39.83382       22.09625
H         65.48193       39.28277       19.93070
H         64.62111       38.06521       20.87961
H         64.77908       38.46022       23.49311
H         66.44448       38.78939       23.99293
N         65.97546       42.96654       22.07142
C         66.57931       43.76596       23.14128
C         68.00916       43.35747       23.48073
O         68.58407       44.00175       24.34720
C         66.53173       45.28341       22.77924
C         65.08839       45.78255       22.64877
C         67.32367       45.62854       21.50543
H         66.40372       43.02877       21.13814
H         66.00384       43.64670       24.08628
H         66.98606       45.85242       23.62125
H         64.52720       45.59231       23.58810
H         65.09061       46.87774       22.46862
H         64.56406       45.28245       21.80940
H         66.88241       45.14431       20.61099
H         67.31170       46.72677       21.33700
H         68.38285       45.31113       21.60230
N         68.63837       42.29516       22.89643
C         69.99507       41.88481       23.26778
C         70.94251       41.75002       22.07330
O         72.11475       41.49061       22.31421
C         69.92355       40.53121       24.00939
C         69.10031       40.60573       25.27450
N         69.46862       41.40613       26.30105
O         68.09636       39.92077       25.38159
H         68.12049       41.71955       22.22338
H         70.45326       42.63220       23.95020
H         70.94299       40.18993       24.28980
H         69.48425       39.77177       23.32448
H         70.31990       41.98215       26.24462
H         68.90252       41.44138       27.16234
N         70.52175       41.82797       20.77539
C         71.37916       41.50067       19.63271
C         71.20778       42.50748       18.51173
O         70.06254       42.75608       18.16814
C         70.93432       40.13511       19.06751
C         70.99337       39.02897       20.09150
C         72.21441       38.62093       20.65350
C         69.80923       38.38906       20.48755
C         72.24369       37.58884       21.59826
C         69.83791       37.36633       21.43654
C         71.05305       36.95974       21.99387
O         71.06374       35.96372       22.90211
H         69.52496       41.99200       20.57761
H         72.44934       41.41258       19.92305
H         71.57210       39.85595       18.20045
H         69.88957       40.23320       18.69548
H         73.14152       39.09525       20.35727
H         68.86077       38.68627       20.06151
H         73.19074       37.27823       22.02084
H         68.91325       36.88871       21.73524
H         71.88266       35.64302       23.30531
N         72.28346       42.99504       17.80665
C         72.20987       43.79591       16.56977
C         71.90624       45.27095       16.79592
O         72.63083       46.09665       16.25524
C         71.23797       43.18995       15.51696
C         71.63196       41.78146       15.03601
C         72.72725       41.81578       13.99969
O         73.94361       42.31432       14.28692
O         72.50738       41.39141       12.87549
H         73.22152       42.67139       18.08859
H         73.21802       43.79157       16.10402
H         71.15499       43.84997       14.62525
H         70.21577       43.14999       15.93131
H         70.73947       41.32572       14.55405
H         71.91464       41.13340       15.89292
N         70.84371       45.68910       17.53390
C         70.43137       47.08472       17.64758
C         71.47177       47.98097       18.31668
O         71.24529       49.18314       18.34751
C         69.08914       47.18482       18.42242
C         67.93540       46.31707       17.86329
C         67.49666       46.70499       16.48277
O         66.22317       47.08147       16.27730
O         68.26441       46.63482       15.53797
H         70.27583       44.98640       17.99826
H         70.27930       47.47613       16.61980
H         68.75142       48.24455       18.45067
H         69.27264       46.85716       19.46902
H         67.07225       46.42139       18.54867
H         68.18727       45.23991       17.86073
N         72.62513       47.49310       18.86396
C         73.63932       48.33540       19.46701
H         74.59626       48.20402       18.91876
H         73.37191       49.41259       19.44217
H         73.78730       48.03371       20.52436
H         72.81735       46.48310       18.86521
Ca        65.52715       47.76346       14.26211
O         62.88820       46.83528       12.62770
H         62.18085       46.25445       12.25098
H         62.59819       47.00415       13.55773
O         68.04224       47.40121       12.44565
H         68.05155       48.39098       12.42390
H         68.86815       47.15746       12.93361
O         66.27652       44.51751       13.67099
H         66.43901       43.79225       13.01713
H         67.18177       44.81690       13.93516
O         65.23511       46.26992       11.08711
H         65.56741       47.07138       10.61030
H         65.92171       45.57676       10.92121

Ca 1.0



