%chk=apoCaM-CA-Ng.loop4.water5.frame3.chk
%nprocshared=20
%mem=10GB
%nosave
#b3lyp/svp scf=(tight,noincore,xqc) Test 
#IOP(5/87=12) Density=Current Pop=(MK,readradii) iop(6/33=2) iop(6/42=6)

apoCaM-CA-Ng.loop4.water5.frame3 

   -3  1 
C         70.69230       28.12916      106.63158
C         71.53026       28.80628      107.67536
O         72.08604       29.85246      107.38568
H         69.88285       28.81881      106.31003
H         71.31884       27.87101      105.75373
H         70.22699       27.20052      107.02311
N         71.63068       28.28420      108.93130
C         72.35712       28.90237      110.03707
C         71.83472       30.30770      110.30296
O         72.60029       31.25469      110.35517
C         73.89540       28.72485      109.90787
C         74.55562       29.32347      108.69706
O         74.58848       30.65557      108.52322
O         75.11502       28.59993      107.88763
H         71.10830       27.42053      109.14353
H         72.10469       28.32535      110.95518
H         74.09096       27.62896      109.89491
H         74.39102       29.13572      110.81403
N         70.49508       30.46990      110.51441
C         69.78536       31.70566      110.84584
C         70.24208       32.23446      112.19742
O         69.55234       31.97307      113.17342
C         69.79810       32.76910      109.70655
C         68.97721       34.04352      110.05002
C         69.33505       32.16786      108.36734
C         67.48043       33.81418      110.28639
H         69.90992       29.62134      110.46166
H         68.72431       31.39517      110.97179
H         70.83640       33.10478      109.56042
H         69.08457       34.77072      109.21607
H         69.40230       34.52244      110.95783
H         69.99505       31.33062      108.06751
H         68.29759       31.78115      108.43030
H         69.39051       32.93377      107.56469
H         67.30856       33.14120      111.15046
H         66.99413       34.78596      110.51396
H         66.99018       33.39374      109.38499
N         71.36378       33.00433      112.33725
C         71.84944       33.46267      113.63420
C         71.51635       34.92654      113.90380
O         70.76943       35.14329      114.84853
C         73.35622       33.17253      113.81959
C         73.71439       31.70923      113.81082
O         72.86519       30.84448      113.66251
O         74.99938       31.34879      113.99007
H         71.88455       33.27729      111.49823
H         71.32903       32.89614      114.44043
H         73.67662       33.58280      114.80221
H         73.94764       33.67213      113.02821
N         72.01802       36.01142      113.24149
C         72.90091       36.04363      112.08935
C         74.29493       36.44807      112.49743
O         74.59691       36.40218      113.68239
H         71.76445       36.93938      113.61840
H         72.48111       36.80622      111.40603
H         72.96390       35.09224      111.54296
N         75.22978       36.87817      111.60413
C         74.99129       37.12199      110.17981
C         74.80344       35.83924      109.38561
O         75.46996       34.86348      109.70088
C         76.21508       37.84494      109.56749
C         76.50610       39.14849      110.25811
O         75.58152       40.12693      110.27722
O         77.58369       39.32517      110.80443
H         76.15209       37.13175      111.99371
H         74.11761       37.79812      110.06975
H         76.03431       38.05804      108.49260
H         77.10894       37.18350      109.63836
N         74.08877       35.79363      108.21888
C         73.25889       36.86557      107.69080
C         71.91492       36.94054      108.38157
O         71.62092       36.12073      109.23867
H         74.17844       34.95251      107.63312
H         73.03722       36.65793      106.62164
H         73.80127       37.83234      107.73293
N         71.03354       37.91671      108.02560
C         69.71530       38.08845      108.63147
C         68.65400       38.04542      107.54203
O         67.90082       38.99342      107.37026
C         69.72079       39.38355      109.48482
C         70.00442       40.68649      108.70165
C         70.20275       41.85296      109.63074
N         71.26689       41.88780      110.46735
O         69.41622       42.78774      109.60956
H         71.32560       38.58506      107.29724
H         69.49745       37.25540      109.33531
H         70.51209       39.24400      110.25345
H         68.75055       39.48576      110.01951
H         69.15965       40.90639      108.01869
H         70.92597       40.60466      108.09303
H         71.95524       41.12044      110.47686
H         71.41748       42.69340      111.09172
N         68.56466       36.95388      106.73070
C         67.69173       36.91305      105.55718
C         68.12979       37.99537      104.59035
O         69.31946       38.24221      104.49302
C         67.74319       35.51549      104.87172
C         66.99412       35.49214      103.52425
C         67.12250       34.45414      105.79451
H         69.18901       36.15437      106.91923
H         66.63745       37.10112      105.86284
H         68.80394       35.24927      104.66714
H         65.93151       35.78737      103.65371
H         67.47291       36.17672      102.79185
H         67.02596       34.47468      103.08254
H         66.05164       34.68702      105.98322
H         67.18387       33.44996      105.32493
H         67.64619       34.41109      106.76950
N         67.20015       38.67160      103.85451
C         67.45958       39.72485      102.87731
C         68.19683       39.23305      101.64024
O         67.57146       39.22091      100.58757
C         68.12519       40.96317      103.51846
C         68.39633       42.06639      102.51764
N         67.39581       42.63137      101.80159
O         69.54376       42.45339      102.35331
H         66.20940       38.41808      103.99232
H         66.45883       40.05688      102.51533
H         69.08787       40.67696      103.98970
H         67.45877       41.35461      104.31693
H         66.41923       42.32743      101.91837
H         67.60163       43.37774      101.12017
N         69.52592       38.91239      101.64662
C         70.26960       38.66557      100.42104
C         70.94390       37.30134      100.42041
O         70.87028       36.58460      101.40761
C         71.30422       39.81620      100.28293
C         71.45966       40.32888       98.87696
C         72.69189       40.29489       98.20792
C         70.34684       40.91170       98.24511
C         72.80354       40.83730       96.92102
C         70.46088       41.45384       96.96685
C         71.69151       41.42136       96.29929
O         71.81651       41.95498       95.06772
H         70.07477       38.97074      102.50958
H         69.57355       38.68583       99.55693
H         72.26458       39.53608      100.76856
H         70.94069       40.70808      100.83900
H         73.56304       39.85997       98.68189
H         69.39137       40.96233       98.75447
H         73.75726       40.81409       96.40998
H         69.59347       41.90708       96.50323
H         71.07277       42.38045       94.61640
N         71.66028       36.92346       99.32373
C         72.46260       35.71644       99.12200
C         72.24529       34.55290      100.09384
O         73.21337       34.05830      100.65483
C         73.94829       36.16018       99.04803
C         74.43308       36.81369      100.36771
C         75.83619       37.34749      100.30011
O         76.36481       37.93969      101.38812
O         76.50083       37.26376       99.27946
H         71.70206       37.59745       98.54471
H         72.17016       35.29879       98.13367
H         74.04403       36.90772       98.22951
H         74.59597       35.29310       98.79249
H         74.39328       36.08324      101.20038
H         73.77279       37.66453      100.62908
N         71.00162       34.02130      100.29563
C         70.77954       32.85643      101.15515
C         70.04377       31.72872      100.43104
O         69.86596       30.67902      101.03465
C         70.04174       33.32081      102.43255
C         69.91939       32.29195      103.58134
C         71.25912       31.82331      104.08683
O         71.98137       31.13409      103.38613
O         71.68061       32.16082      105.31754
H         70.18936       34.47872       99.85570
H         71.75962       32.44901      101.45788
H         69.02919       33.67418      102.14824
H         70.59848       34.18946      102.84885
H         69.30130       31.41753      103.29521
H         69.39354       32.79995      104.41670
N         69.59853       31.84844       99.14505
C         68.88699       30.79446       98.44726
H         67.88458       31.16594       98.14738
H         69.45162       30.50879       97.53565
H         68.74616       29.88596       99.07017
H         69.75342       32.71577       98.61435
Ca        73.80342       31.57841      105.83576
O         74.09623       34.36142      104.77774
H         74.56260       35.22965      104.68690
H         73.13654       34.57950      104.66948
O         72.73881       32.88868      108.03215
H         73.42534       33.07889      108.71950
H         72.25675       33.74318      107.90459
O         73.89977       28.80588      104.85777
H         74.71992       28.50303      104.39402
H         73.19545       28.77814      104.16280
O         75.89986       31.56376      103.74071
H         75.78438       30.71598      103.24265
H         75.61006       32.26691      103.10679
O         76.39374       32.98452      106.79922
H         76.65339       32.64846      107.69354
H         76.35281       33.96786      106.90535

Ca 1.0



