%chk=apoCaM-CA-Ng.loop4.water4.frame973.chk
%nprocshared=20
%mem=10GB
%nosave
#b3lyp/svp scf=(tight,noincore,xqc) Test 
#IOP(5/87=12) Density=Current Pop=(MK,readradii) iop(6/33=2) iop(6/42=6)

apoCaM-CA-Ng.loop4.water4.frame973 

   -3  1 
C         90.12826       23.74492       53.21564
C         90.41546       24.16613       54.62772
O         89.53944       24.73768       55.25757
H         89.86210       24.64146       52.61535
H         91.01280       23.26579       52.74511
H         89.28102       23.02958       53.19748
N         91.64618       23.94789       55.17719
C         92.07724       24.41690       56.49639
C         91.40462       23.71239       57.67263
O         91.71166       24.06557       58.80286
C         91.89663       25.94687       56.62310
C         92.34467       26.66362       55.37951
O         93.59198       26.50825       54.90435
O         91.54674       27.34285       54.75322
H         92.36213       23.48499       54.59615
H         93.16745       24.20513       56.57588
H         92.46675       26.30996       57.50454
H         90.82540       26.19004       56.79663
N         90.49007       22.71508       57.50209
C         89.79153       22.06704       58.61204
C         90.66095       20.90848       59.08357
O         90.88876       20.02315       58.26992
C         88.38108       21.59371       58.11183
C         87.57115       22.79427       57.54338
C         87.57644       20.88416       59.21491
C         86.29507       22.39003       56.80370
H         90.27738       22.38754       56.54939
H         89.63721       22.79944       59.42356
H         88.55035       20.86623       57.28636
H         88.17924       23.33695       56.79781
H         87.32324       23.50782       58.35681
H         86.63553       20.46156       58.80993
H         88.15080       20.03789       59.64395
H         87.30280       21.59683       60.01846
H         85.56462       21.90001       57.47587
H         85.81328       23.29858       56.38291
H         86.54436       21.70786       55.96258
N         91.25328       20.81518       60.31780
C         91.12243       21.73759       61.45281
C         92.15774       21.39013       62.51926
O         92.22803       20.23457       62.91766
C         89.72252       21.63722       62.08796
C         89.60855       22.48039       63.32892
O         89.30338       21.90030       64.50431
O         89.81404       23.68194       63.28350
H         91.88019       20.00370       60.44398
H         91.30687       22.78106       61.11942
H         89.51040       20.57858       62.35564
H         88.95674       21.97950       61.37996
N         92.97294       22.35289       63.04812
C         94.02225       22.04780       64.01095
C         93.88178       22.71318       65.36787
O         94.75300       22.45434       66.18650
H         92.87037       23.33059       62.73480
H         94.99251       22.36653       63.57151
H         94.08846       20.95563       64.19370
N         92.88345       23.59218       65.69292
C         92.85946       24.28788       66.98545
C         91.53695       24.22140       67.74517
O         91.53275       24.66831       68.88442
C         93.34657       25.74361       66.79809
C         92.70110       26.48009       65.64883
O         91.37946       26.70881       65.61455
O         93.39234       26.87732       64.72483
H         92.18746       23.85261       64.97965
H         93.58413       23.81739       67.68669
H         94.43652       25.69713       66.58241
H         93.22637       26.31599       67.74432
N         90.38638       23.69299       67.23552
C         89.14429       23.64078       68.00684
C         88.56074       25.00612       68.35533
O         87.55577       25.04179       69.05036
H         90.38386       23.29530       66.28924
H         89.33160       23.07521       68.94598
H         88.37297       23.08887       67.42668
N         89.11432       26.16650       67.89399
C         88.62881       27.51341       68.17027
C         87.26029       27.78934       67.55840
O         86.71930       28.85692       67.80855
C         88.73195       27.86096       69.67488
C         90.18081       27.65908       70.16869
C         90.45199       28.16694       71.56089
N         91.69293       28.03132       72.08539
O         89.57359       28.71020       72.21442
H         89.93910       26.11423       67.30061
H         89.31046       28.23319       67.66196
H         88.03240       27.25585       70.28967
H         88.46266       28.93399       69.79490
H         90.87785       28.19333       69.48687
H         90.41906       26.57675       70.14481
H         92.44376       27.57585       71.54434
H         91.90820       28.38194       73.03020
N         86.68929       26.92344       66.66616
C         85.42775       27.18403       65.97546
C         85.62835       27.35656       64.46889
O         84.65558       27.66882       63.79402
C         84.40520       26.04593       66.26458
C         84.87871       24.66925       65.75386
C         84.08637       25.96231       67.76311
H         87.18393       26.05745       66.42258
H         84.98926       28.14067       66.33446
H         83.45725       26.29233       65.73654
H         85.08397       24.70125       64.66315
H         85.79468       24.32716       66.27902
H         84.08982       23.90718       65.92703
H         83.31530       25.18405       67.94759
H         84.99305       25.70384       68.34936
H         83.69140       26.93489       68.12492
N         86.83540       27.14699       63.86497
C         87.05746       27.23708       62.42551
C         88.21171       28.19595       62.12612
O         88.86435       28.67258       63.04664
C         87.36260       25.79665       61.93913
C         87.69501       25.65841       60.47707
N         88.92404       25.23915       60.09368
O         86.85702       25.93700       59.63209
H         87.64408       26.85106       64.42999
H         86.14968       27.61271       61.90373
H         86.48795       25.14445       62.15557
H         88.21523       25.42006       62.53580
H         89.64530       25.00174       60.79128
H         89.16391       25.16284       59.09498
N         88.53420       28.48919       60.83536
C         89.69739       29.25509       60.41771
C         89.26401       30.34923       59.46229
O         88.66821       30.02337       58.44265
C         90.64324       28.28751       59.67941
C         91.88886       28.95859       59.16094
C         92.86494       29.44578       60.04383
C         92.08740       29.08805       57.77835
C         94.02829       30.04207       59.54504
C         93.24684       29.68300       57.28160
C         94.22411       30.16066       58.16380
O         95.35156       30.73196       57.69571
H         87.95203       28.10274       60.08132
H         90.23606       29.68173       61.29264
H         90.07984       27.83467       58.83221
H         90.93931       27.45078       60.34945
H         92.73154       29.35179       61.11437
H         91.34037       28.72971       57.08336
H         94.78053       30.40685       60.23256
H         93.38471       29.76881       56.21179
H         95.52203       30.82691       56.74744
N         89.54978       31.66064       59.70141
C         89.19987       32.71873       58.76098
C         90.46398       33.44135       58.33613
O         91.00695       34.16798       59.15739
C         88.16815       33.66301       59.42254
C         87.62890       34.78680       58.51756
C         88.64635       35.85218       58.22064
O         89.19834       36.55684       59.22795
O         88.96215       36.09940       57.06808
H         90.04298       31.91768       60.57102
H         88.70524       32.28567       57.87759
H         88.58181       34.10126       60.35802
H         87.29798       33.03282       59.70952
H         86.78725       35.28429       59.04538
H         87.23357       34.34532       57.57681
N         91.05550       33.29689       57.11210
C         90.68891       32.32757       56.07849
C         89.34314       32.60328       55.43633
O         89.12249       33.69857       54.93797
C         91.78025       32.31372       54.98668
C         91.59526       31.16937       53.98002
C         92.73883       31.14899       53.01230
O         93.57585       30.09796       52.98861
O         92.92809       32.08889       52.25699
H         91.91220       33.85269       56.95449
H         90.69555       31.31713       56.54215
H         92.76406       32.16171       55.48436
H         91.80657       33.29314       54.45824
H         90.64197       31.27289       53.41879
H         91.57235       30.20478       54.53235
N         88.41642       31.60762       55.35466
C         87.14694       31.77954       54.68471
H         86.55273       32.56955       55.18815
H         87.31506       32.05507       53.62118
H         86.57564       30.82639       54.71107
H         88.63086       30.67999       55.75115
Ca        93.98974       27.30971       52.83146
O         95.68182       24.88807       52.99978
H         96.11821       25.43988       53.69687
H         95.87431       25.36313       52.15225
O         90.98982       28.09050       51.60993
H         90.85600       27.28163       52.16476
H         90.07366       28.38252       51.37423
O         96.48937       28.94871       52.48764
H         96.36352       29.24474       53.42425
H         97.05215       28.13705       52.55740
O         93.99746       29.09661       50.15507
H         94.76837       29.62844       49.83424
H         93.29596       29.76863       50.34602

Ca 1.0



