%chk=apoCaM-CA-Ng.loop1.water3.frame781.chk
%nprocshared=20
%mem=10GB
%nosave
#b3lyp/svp scf=(tight,noincore,xqc) Test 
#IOP(5/87=12) Density=Current Pop=(MK,readradii) iop(6/33=2) iop(6/42=6)

apoCaM-CA-Ng.loop1.water3.frame781 

   0  1 
C         99.21186       29.52565       22.76915
C         99.79432       28.32292       23.44508
O        100.98053       28.32243       23.74278
H         98.37832       29.93131       23.37870
H         99.98277       30.31445       22.63753
H         98.82706       29.23263       21.76941
N         99.00235       27.24652       23.70904
C         99.49747       26.01793       24.32194
C         99.39456       24.80244       23.36450
O         99.00044       25.19512       22.07862
C         98.80846       25.77798       25.68769
C         97.29075       25.63639       25.80808
O         96.41438       25.56924       24.77698
O         96.83010       25.57979       26.93689
H         98.00915       27.31083       23.45113
H        100.57863       26.14108       24.55380
H         99.07838       26.65863       26.31131
H         99.26774       24.88396       26.16275
N        100.65891       24.05897       23.27688
C        100.51552       22.82281       22.48226
C        100.03357       21.65567       23.32318
O         99.95160       21.76337       24.53858
C        101.82548       22.55046       21.71918
C        102.08866       23.71891       20.74836
C        103.34989       23.53891       19.90267
C        103.49087       24.72172       18.92911
N        104.68110       24.58597       18.09307
H        101.08871       23.87377       24.21360
H         99.73080       22.95978       21.70387
H        101.73152       21.61465       21.12647
H        102.66992       22.43467       22.43353
H        102.18221       24.66823       21.32024
H        101.21706       23.80582       20.06145
H        103.27649       22.59333       19.32287
H        104.24002       23.48873       20.56695
H        103.55323       25.67397       19.50266
H        102.59158       24.77038       18.27398
H        104.62553       23.70660       17.52995
H        104.73206       25.40223       17.44098
H        105.53922       24.57451       18.69023
N         99.60037       20.52599       22.69983
C         98.94384       19.41722       23.39416
C         98.59953       18.29492       22.41850
O         98.33457       18.57294       21.25672
C         97.67516       19.89821       24.14964
C         96.81367       20.83500       23.34123
O         96.61508       22.09615       23.77575
O         96.30292       20.47226       22.29485
H         99.69057       20.49007       21.67283
H         99.66033       19.00241       24.13306
H         97.98917       20.44818       25.06007
H         97.07611       19.03123       24.50007
N         98.62359       16.97873       22.77732
C         98.83305       16.46808       24.12242
C        100.25462       16.01472       24.35145
O        101.13436       16.32657       23.56288
H         98.44004       16.27492       22.04611
H         98.14312       15.60818       24.25890
H         98.55514       17.20155       24.90715
N        100.54472       15.27823       25.45985
C        101.89239       14.85261       25.83064
C        102.56519       14.02623       24.74836
O        103.70881       14.31548       24.42653
C        101.89254       14.14852       27.20688
C        101.08753       12.87901       27.28880
O        100.02088       12.81590       28.10851
O        101.42161       11.88670       26.66292
H         99.76158       15.02627       26.08282
H        102.51141       15.76601       25.98001
H        101.47552       14.87191       27.94162
H        102.93846       13.92907       27.51184
N        101.91159       13.01765       24.10741
C        102.50135       12.25890       23.01738
C        102.86397       13.17355       21.87271
O        103.99840       13.14874       21.42130
H        100.93737       12.80213       24.36709
H        101.75494       11.52173       22.64846
H        103.39397       11.69714       23.37142
N        101.91597       14.00378       21.35378
C        102.13908       14.89415       20.20866
C        100.79961       15.24096       19.56062
O         99.75464       15.01230       20.15182
C        102.87548       16.21681       20.60354
C        104.20099       16.04780       21.35343
O        103.09580       17.02387       19.47442
H        100.97341       13.91627       21.75852
H        102.71389       14.31810       19.44944
H        102.20555       16.78198       21.28499
H        103.74556       16.54923       18.89159
H        104.04108       15.53654       22.31751
H        104.93630       15.48539       20.74098
H        104.62542       17.04691       21.58815
N        100.75282       15.76731       18.30513
C         99.48219       15.99208       17.62368
C         98.81335       14.63974       17.41766
O         97.66243       14.48893       17.80704
C         99.65606       16.76794       16.28462
C        100.36585       18.12946       16.54288
C         98.26503       17.00374       15.65065
C        100.64022       18.93935       15.27525
H        101.63359       15.94714       17.80639
H         98.83753       16.63673       18.26524
H        100.27518       16.16110       15.58796
H        101.35418       17.95805       17.01397
H         99.76245       18.74782       17.24359
H         97.63056       17.61793       16.32788
H         98.33993       17.51667       14.67272
H         97.74280       16.04402       15.45929
H        101.20008       19.85995       15.54474
H        101.25424       18.34516       14.56616
H         99.70097       19.25668       14.78086
N         99.51283       13.58690       16.89373
C         98.95126       12.24502       16.75251
C         99.15966       11.71425       15.34657
O         99.92527       12.28283       14.57752
C         99.62068       11.27556       17.77357
C         99.44550       11.73531       19.22306
O         99.13207        9.96334       17.64654
H        100.50630       13.72669       16.64820
H         97.85678       12.27140       16.94824
H        100.71357       11.24496       17.56604
H         98.17350        9.97142       17.90689
H         99.92909       12.71232       19.36668
H         98.36780       11.81429       19.48169
H         99.93231       11.01389       19.91213
N         98.49592       10.59249       14.95819
C         98.69561        9.91542       13.69109
C         97.44697       10.06014       12.84758
O         97.54287       10.59333       11.75117
C         99.09118        8.43335       13.96660
C         99.29721        7.61955       12.68563
O         98.11947        7.79757       14.75977
H         97.79959       10.18876       15.60184
H         99.53543       10.37963       13.12460
H        100.05819        8.46077       14.52392
H         98.58126        7.10026       15.29503
H        100.08640        8.07772       12.05513
H         99.61070        6.58585       12.94932
H         98.35250        7.55402       12.10531
N         96.24858        9.57508       13.27790
C         95.05888        9.55283       12.44547
C         93.84426       10.05105       13.20583
O         93.62048        9.62593       14.33112
C         94.85825        8.10769       11.97544
C         93.70117        7.98326       10.97888
C         93.64481        6.56818       10.40566
C         92.50201        6.43478        9.39607
N         92.47364        5.09016        8.82485
H         96.19596        9.10202       14.19032
H         95.20175       10.15930       11.52311
H         94.69835        7.43006       12.84311
H         95.79432        7.79736       11.45835
H         93.85906        8.69980       10.14198
H         92.74086        8.22741       11.48310
H         93.50057        5.83745       11.23109
H         94.60825        6.34657        9.89449
H         92.63863        7.17714        8.57776
H         91.53389        6.64358        9.90341
H         93.36965        4.89782        8.32010
H         92.33620        4.38161        9.58177
H         91.68128        5.02378        8.14662
N         92.94774       10.87145       12.58983
C         91.69271       11.27419       13.20849
C         91.91399       12.24196       14.36666
O         91.42096       11.94599       15.44577
C         90.70590       11.81682       12.14347
C         89.33439       12.18222       12.73638
C         88.38287       12.62140       11.65971
O         88.63738       13.59798       10.97251
O         87.23744       11.94357       11.45364
H         93.12272       11.14153       11.60950
H         91.18919       10.35934       13.60056
H         90.55419       11.01553       11.38544
H         91.11125       12.69318       11.61075
H         89.44270       13.00885       13.47082
H         88.90789       11.29835       13.25914
N         92.59731       13.42095       14.26947
C         93.34307       13.86262       13.10956
H         94.20539       13.18511       12.93697
H         92.71630       13.91897       12.20659
H         93.74262       14.88267       13.29185
H         92.62133       14.03583       15.09801
Ca        96.85315       25.33995       22.60074
O         94.31988       23.45207       19.66060
H         93.87533       23.46182       20.54518
H         93.58835       23.60248       19.01058
O         97.38263       23.96065       19.65800
H         98.25674       24.42346       19.62085
H         96.77103       24.55131       19.15076
O         93.86636       24.24870       24.31293
H         93.35318       23.42702       24.11024
H         93.96927       24.24135       25.29797

Ca 1.0



