%chk=apoCaM-CA-Ng.loop2.water3.frame591.chk
%nprocshared=20
%mem=10GB
%nosave
#b3lyp/svp scf=(tight,noincore,xqc) Test 
#IOP(5/87=12) Density=Current Pop=(MK,readradii) iop(6/33=2) iop(6/42=6)

apoCaM-CA-Ng.loop2.water3.frame591 

   -2  1 
C         42.12528      113.99096       11.64939
C         41.37812      115.21196       12.10620
O         40.96537      115.26924       13.25549
H         43.09094      113.87533       12.17791
H         41.48562      113.10165       11.83788
H         42.31235      114.02832       10.55391
N         41.10533      116.19953       11.21285
C         40.14882      117.27086       11.45575
C         40.53926      118.18645       12.60926
O         41.44922      118.98079       12.45738
C         39.95396      118.04494       10.13707
C         38.88333      119.08402       10.22789
O         37.62253      118.72309       10.53043
O         39.14405      120.25504       10.00542
H         41.51034      116.11138       10.26777
H         39.18397      116.78039       11.70589
H         39.65931      117.31833        9.34758
H         40.92097      118.50499        9.82674
N         39.83475      118.14680       13.78018
C         40.09180      118.99243       14.95134
C         41.42775      118.67438       15.61919
O         41.96751      117.60851       15.35615
C         38.98004      118.71979       15.98345
H         39.04604      117.48458       13.82899
H         40.04889      120.05159       14.62974
H         37.98729      118.89677       15.52089
H         39.02275      117.65522       16.30956
H         39.05169      119.34997       16.88786
N         42.01848      119.49021       16.55048
C         41.60394      120.86550       16.86237
C         41.78358      121.76980       15.66248
O         42.57259      121.42814       14.80394
C         42.41391      121.46569       18.04605
C         43.92190      121.39806       17.93437
O         44.47041      120.81525       17.01740
O         44.68256      121.99181       18.87251
H         42.84827      119.10799       17.02729
H         40.53745      120.88223       17.15131
H         42.14019      120.94271       18.98253
H         42.12720      122.53583       18.15231
N         41.12682      122.96850       15.57363
C         41.29985      123.92178       14.47635
C         40.72814      123.42408       13.16740
O         40.12644      122.36016       13.15600
H         40.48925      123.23418       16.33865
H         42.37589      124.15904       14.36877
H         40.75270      124.85820       14.72004
N         40.83369      124.11328       11.99376
C         41.50355      125.38991       11.75848
C         42.57211      125.23996       10.65708
O         43.19269      126.23081       10.29431
C         40.36775      126.36648       11.37759
C         40.73914      127.79558       11.09171
N         41.33228      128.56191       12.03325
O         40.44597      128.28433       10.01028
H         40.35970      123.70287       11.17359
H         42.01167      125.76783       12.67335
H         39.65636      126.38727       12.23214
H         39.82795      125.95385       10.49694
H         41.57563      128.17004       12.95350
H         41.52967      129.55618       11.84532
N         42.83202      124.02487       10.07547
C         43.80421      123.80489        9.01859
C         45.24044      123.89727        9.48023
O         46.10045      124.08914        8.63281
H         42.29515      123.19768       10.35081
H         43.60973      124.51841        8.18935
H         43.67195      122.77853        8.61010
N         45.59031      123.70952       10.78647
C         46.95464      123.86830       11.28245
C         47.57341      122.58792       11.79179
O         46.87769      121.61555       12.05330
C         46.95089      124.88009       12.44965
C         46.51586      126.26533       11.98816
O         46.08301      124.42161       13.45797
H         44.85772      123.49307       11.46773
H         47.61489      124.21409       10.46071
H         47.98141      124.96197       12.86496
H         46.34104      124.88968       14.29466
H         47.29985      126.68754       11.32737
H         45.55201      126.22592       11.44214
H         46.39155      126.92441       12.87185
N         48.92371      122.58195       12.01676
C         49.65126      121.47323       12.60488
C         50.05071      121.81665       14.04661
O         50.65872      122.84521       14.30439
C         50.89170      121.04183       11.76150
C         51.49356      119.77152       12.43320
C         50.47305      120.74834       10.30455
C         52.74491      119.16847       11.79495
H         49.46258      123.42777       11.77920
H         48.98464      120.58511       12.62306
H         51.65043      121.85711       11.74856
H         50.70968      118.99084       12.44897
H         51.77217      120.00122       13.48385
H         51.31237      120.34013        9.70904
H         49.63355      120.02076       10.27365
H         50.15870      121.68157        9.79201
H         52.95946      118.20743       12.31093
H         52.61292      118.92691       10.72366
H         53.61691      119.84172       11.92623
N         49.70931      120.93504       15.02577
C         49.97272      120.97608       16.45090
C         50.54974      119.64074       17.00018
O         50.88978      119.62251       18.17488
C         48.62363      121.22979       17.15610
C         48.02692      122.56092       16.75221
O         48.61258      123.57736       17.07701
O         46.86986      122.69687       16.06500
H         49.15605      120.16814       14.73260
H         50.68434      121.80142       16.67232
H         48.78240      121.24850       18.25779
H         47.92464      120.39234       16.93137
N         50.69889      118.50096       16.24297
C         51.33606      117.26847       16.71581
C         50.60925      116.02179       16.17215
O         51.18263      115.33457       15.33911
C         52.80711      117.38181       16.24385
C         53.83380      116.40582       16.77601
C         53.96107      116.18007       18.15763
C         54.76408      115.81094       15.89984
C         55.00722      115.39576       18.65441
C         55.81773      115.03836       16.40455
C         55.94326      114.83834       17.78076
H         50.51190      118.53778       15.24125
H         51.34034      117.22735       17.82472
H         53.16007      118.36528       16.62101
H         52.84225      117.43034       15.13247
H         53.26930      116.62906       18.85590
H         54.70866      115.98046       14.83148
H         55.10727      115.24131       19.72073
H         56.55327      114.61317       15.73255
H         56.77156      114.25983       18.17096
N         49.35088      115.64622       16.58687
C         48.62187      114.46360       16.09522
C         48.43895      114.32746       14.57814
O         48.08918      113.25830       14.10182
C         47.22825      114.65127       16.71366
C         47.55469      115.27756       18.04790
C         48.63838      116.29120       17.67657
H         49.15623      113.57259       16.48242
H         46.66272      115.42562       16.13757
H         46.61787      113.72513       16.75077
H         46.69666      115.70439       18.61120
H         48.01685      114.47299       18.66403
H         48.22663      117.26361       17.33230
H         49.27233      116.43764       18.57993
N         48.55762      115.41474       13.78894
C         48.33661      115.47787       12.35054
C         49.52481      114.83718       11.69155
O         49.36222      113.93714       10.88085
C         48.13673      116.92532       11.80415
C         47.00637      117.73233       12.48677
C         47.46406      118.43870       13.71406
O         46.83027      119.52715       14.13256
O         48.56654      118.24332       14.14057
H         48.86175      116.21920       14.28205
H         47.39158      114.94809       12.09903
H         47.84727      116.82161       10.73632
H         49.07241      117.52377       11.80873
H         46.12346      117.09427       12.68603
H         46.70778      118.56359       11.80918
N         50.77524      115.19464       12.09884
C         51.95655      114.49810       11.65688
H         52.82452      114.80935       12.27780
H         51.81047      113.40567       11.80076
H         52.15621      114.72052       10.59050
H         50.88757      115.92449       12.82028
Ca        45.72704      121.28878       14.76387
O         44.29862      119.19735       13.25455
H         43.37899      119.19333       13.59100
H         44.65765      118.37648       13.66091
O         43.61750      121.74685       12.31396
H         42.86338      122.22298       12.72119
H         43.25231      121.46936       11.44203
O         44.34257      123.68372       15.98869
H         44.73212      123.61367       16.89305
H         44.27741      124.65733       15.84471

Ca 1.0



