%chk=apoCaM-CA-Ng.loop3.water5.frame83.chk
%nprocshared=20
%mem=10GB
%nosave
#b3lyp/svp scf=(tight,noincore,xqc) Test 
#IOP(5/87=12) Density=Current Pop=(MK,readradii) iop(6/33=2) iop(6/42=6)

apoCaM-CA-Ng.loop3.water5.frame83 

   0  1 
C         65.38279       74.09129        2.92229
C         66.79244       74.54755        2.69071
O         67.17640       74.72457        1.54426
H         64.84291       73.97117        1.95789
H         65.38473       73.11858        3.45605
H         64.84602       74.84553        3.53565
N         67.62047       74.77303        3.75364
C         68.99366       75.26750        3.64692
C         69.95069       74.27797        2.99282
O         71.09085       74.65544        2.75820
C         69.03227       76.64609        2.94681
C         68.17449       77.64399        3.67297
O         67.24410       78.18791        3.10034
O         68.43138       77.94434        4.96083
H         67.24578       74.62057        4.70254
H         69.39233       75.42264        4.67430
H         68.70715       76.56447        1.88893
H         70.07385       77.03313        2.94188
N         69.59861       72.98411        2.73395
C         70.51378       72.01099        2.14064
C         70.00126       71.50390        0.80687
O         70.71641       70.74951        0.16081
C         70.77878       70.87553        3.14753
C         71.51746       71.44567        4.36975
C         71.78042       70.39778        5.45338
C         72.62336       70.96425        6.61358
N         71.97613       72.09191        7.29044
H         68.66122       72.64857        2.99943
H         71.49264       72.48284        1.90327
H         71.42077       70.09447        2.68330
H         69.81564       70.40732        3.44952
H         70.90678       72.25989        4.80842
H         72.48999       71.86494        4.02773
H         72.34088       69.54609        5.01001
H         70.81150       70.01589        5.84246
H         73.61752       71.28674        6.23084
H         72.79040       70.14855        7.35049
H         71.02278       71.81929        7.62187
H         72.55573       72.37010        8.11476
H         71.91346       72.92109        6.65773
N         68.80947       71.92134        0.28896
C         68.38668       71.60536       -1.06766
C         69.33883       72.27800       -2.06423
O         70.17542       73.07342       -1.65489
C         66.92484       72.07935       -1.23521
C         66.31258       71.74482       -2.55320
O         66.20781       70.46275       -2.95313
O         65.87067       72.63845       -3.25248
H         68.19042       72.51563        0.85247
H         68.42156       70.50015       -1.19546
H         66.87700       73.17874       -1.07258
H         66.30097       71.59048       -0.45521
N         69.29802       71.97494       -3.38986
C         70.21384       72.54640       -4.36502
C         70.02659       74.03510       -4.52092
O         70.98976       74.77670       -4.38820
H         68.62226       71.27550       -3.72709
H         70.01694       72.08182       -5.35229
H         71.26417       72.30990       -4.08455
N         68.79452       74.53635       -4.80605
C         68.52366       75.95333       -5.02727
C         67.80785       76.53657       -3.82479
O         68.25265       77.55051       -3.30452
C         67.78050       76.17750       -6.36741
C         66.36432       75.64963       -6.44169
N         65.33377       76.48874       -6.70272
O         66.14445       74.45793       -6.29870
H         68.01029       73.87081       -4.84128
H         69.48126       76.51143       -5.13372
H         68.37282       75.70725       -7.18245
H         67.76007       77.27113       -6.56383
H         65.49080       77.49625       -6.84705
H         64.37153       76.13112       -6.77784
N         66.74429       75.89196       -3.27582
C         66.06750       76.31509       -2.06382
C         64.58606       76.41562       -2.29300
O         64.13520       76.28225       -3.42345
H         66.42411       75.01296       -3.70027
H         66.45501       77.28023       -1.67126
H         66.23876       75.53570       -1.29211
N         63.74985       76.62538       -1.23923
C         62.30046       76.69481       -1.40231
C         61.76197       75.36683       -1.94050
O         62.48673       74.38161       -1.92794
C         61.65617       77.08207       -0.04945
C         60.19715       77.45227       -0.12960
C         59.78919       78.54466       -0.91394
C         59.23562       76.73888        0.60382
C         58.44214       78.90998       -0.97090
C         57.88744       77.10271        0.54211
C         57.48666       78.19168       -0.24554
O         56.19156       78.56045       -0.30746
H         64.16488       76.74513       -0.30103
H         62.10701       77.49611       -2.14803
H         62.18115       77.97753        0.34973
H         61.82100       76.25104        0.67257
H         60.51463       79.11999       -1.47495
H         59.52739       75.90322        1.22728
H         58.14266       79.75647       -1.57578
H         57.15728       76.54161        1.11144
H         55.50040       78.09575        0.18531
N         60.51130       75.28579       -2.47890
C         59.97148       74.06858       -3.08861
C         59.70342       74.34036       -4.55988
O         60.25512       73.65031       -5.40400
C         58.67658       73.61118       -2.35510
C         58.97068       73.35784       -0.85652
C         58.10110       72.33622       -3.01209
C         57.71385       73.09839       -0.02382
H         59.92774       76.13362       -2.49049
H         60.70328       73.23265       -3.02014
H         57.92493       74.42737       -2.43410
H         59.45184       74.25435       -0.42647
H         59.67988       72.50914       -0.74276
H         57.89630       72.49144       -4.08799
H         58.81756       71.49218       -2.91996
H         57.13682       72.04416       -2.55182
H         57.99773       72.98565        1.04337
H         57.01351       73.95651       -0.11300
H         57.19885       72.16839       -0.33533
N         58.85152       75.33153       -4.93796
C         58.51987       75.62689       -6.32733
C         57.82301       74.45362       -6.98926
O         58.12575       74.16101       -8.13707
C         57.60139       76.85505       -6.40542
O         58.25502       77.96521       -5.85374
H         58.41176       75.90336       -4.20076
H         59.44496       75.87983       -6.89457
H         56.65843       76.65352       -5.84838
H         57.36713       77.06394       -7.47427
H         57.60523       78.71399       -5.88901
N         56.86967       73.74453       -6.31505
C         56.05724       72.67402       -6.89009
C         56.83653       71.48814       -7.45736
O         56.17883       70.61174       -8.01163
C         55.12832       73.27045       -7.95619
H         56.66498       74.00457       -5.33925
H         55.39442       72.27613       -6.08932
H         55.70009       73.67412       -8.81630
H         54.42225       72.49819       -8.33042
H         54.52576       74.08960       -7.50803
N         58.19459       71.35607       -7.37918
C         58.91887       70.26550       -8.02646
C         59.63879       69.38775       -7.02787
O         59.68949       69.72351       -5.84875
C         59.91607       70.85396       -9.03179
H         58.75159       72.05197       -6.86192
H         58.21543       69.60815       -8.58265
H         59.37719       71.46887       -9.78337
H         60.65048       71.50601       -8.51206
H         60.46971       70.05347       -9.56522
N         60.18950       68.20705       -7.43893
C         60.93101       67.28687       -6.58094
C         60.10350       66.92816       -5.35806
O         60.55195       67.12127       -4.23579
C         62.28944       67.90798       -6.20016
C         63.16040       68.19642       -7.43785
C         64.31001       69.10118       -7.10931
O         65.05684       69.47855       -7.99754
O         64.43104       69.61924       -5.87391
H         60.06455       67.92662       -8.42588
H         61.13569       66.35222       -7.14902
H         62.85942       67.23609       -5.52040
H         62.07942       68.84870       -5.65333
H         62.56534       68.74193       -8.20040
H         63.51662       67.24188       -7.88244
N         58.84878       66.42846       -5.51165
C         58.00742       66.12999       -4.37396
H         57.01688       65.76810       -4.71965
H         58.48215       65.34705       -3.74610
H         57.85659       67.04924       -3.76680
H         58.47052       66.28269       -6.45938
Ca        65.34581       71.65249       -5.69295
O         64.37927       72.71228       -8.40530
H         63.58154       72.17447       -8.63926
H         64.01491       73.58908       -8.12446
O         62.17862       71.34801       -6.25353
H         61.75761       71.38823       -5.35908
H         62.10762       72.26696       -6.60869
O         63.14707       74.32586       -5.38970
H         62.51778       75.03171       -5.68312
H         62.84422       74.09003       -4.47932
O         63.01312       71.06242       -2.94038
H         63.41293       71.07464       -2.03502
H         62.94505       72.01700       -3.19116
O         67.93456       71.56713       -6.83782
H         67.86144       72.53220       -7.04533
H         67.25270       71.13835       -7.41297

Ca 1.0



