%chk=apoCaM-CA-Ng.loop1.water3.frame1249.chk
%nprocshared=20
%mem=10GB
%nosave
#b3lyp/svp scf=(tight,noincore,xqc) Test 
#IOP(5/87=12) Density=Current Pop=(MK,readradii) iop(6/33=2) iop(6/42=6)

apoCaM-CA-Ng.loop1.water3.frame1249 

   0  1 
C         33.24338       34.73276       25.44517
C         33.66963       36.03098       26.05412
O         33.71306       37.01409       25.33100
H         32.22484       34.84528       25.01876
H         33.94928       34.46613       24.62932
H         33.23691       33.91545       26.19399
N         34.03110       36.10958       27.36958
C         34.51372       37.34419       27.97941
C         35.98816       37.22663       28.28304
O         36.43435       37.52132       29.38438
C         33.63873       37.79895       29.16858
C         33.56840       36.81434       30.30473
O         33.06030       35.71649       30.14481
O         34.02322       37.16136       31.52354
H         34.01993       35.25041       27.93658
H         34.46667       38.16044       27.24441
H         32.60673       37.99523       28.80675
H         34.04635       38.76219       29.54967
N         36.81736       36.83520       27.27941
C         38.26571       36.84672       27.37237
C         38.74937       38.28515       27.51450
O         39.45800       38.53457       28.47893
C         38.91012       36.08427       26.18934
C         38.48495       34.60039       26.24152
C         39.07083       33.76254       25.10339
C         38.59920       32.30390       25.23393
N         39.11331       31.47784       24.14386
H         36.39032       36.54774       26.38621
H         38.57899       36.28199       28.28175
H         40.01741       36.13580       26.28237
H         38.62651       36.52714       25.21395
H         37.37854       34.52268       26.18407
H         38.81402       34.16615       27.21211
H         40.18122       33.79974       25.14156
H         38.72767       34.17645       24.13035
H         37.48631       32.26889       25.22016
H         38.94700       31.88628       26.20571
H         38.77443       30.49667       24.27258
H         38.76325       31.83800       23.22660
H         40.15879       31.47977       24.15266
N         38.37914       39.32735       26.70066
C         37.49464       39.27977       25.52895
C         36.15352       39.92107       25.82319
O         35.98790       40.54842       26.86061
C         38.17890       39.91408       24.29589
C         38.89979       41.19798       24.63253
O         38.28438       42.34558       25.01594
O         40.11786       41.15466       24.66318
H         38.71698       40.25965       26.98795
H         37.25053       38.24017       25.26602
H         37.48467       40.04053       23.43899
H         38.95840       39.18521       23.97577
N         35.09911       39.67623       24.98985
C         33.73771       40.08883       25.30157
C         33.48343       41.52127       24.97276
O         34.30042       42.13334       24.32301
H         35.24338       39.06071       24.17398
H         33.52076       39.90341       26.37103
H         33.01661       39.49958       24.69645
N         32.33168       42.11573       25.38091
C         31.96307       43.48845       25.04097
C         30.60172       43.47745       24.34450
O         29.96616       42.43269       24.33496
C         31.94156       44.31459       26.34697
C         33.30708       44.38312       26.97275
O         33.50856       43.89179       28.20980
O         34.23452       44.90056       26.36981
H         31.68607       41.56933       25.97131
H         32.70130       43.92592       24.34190
H         31.22465       43.85465       27.06109
H         31.61924       45.35281       26.18659
N         30.04377       44.56422       23.73012
C         30.66495       45.86130       23.52806
C         31.75381       45.80263       22.49272
O         31.44770       45.44825       21.36186
H         29.09160       44.45094       23.34660
H         30.99757       46.31466       24.47133
H         29.90021       46.55423       23.11369
N         33.03760       46.16949       22.78272
C         34.06696       46.27058       21.74944
C         35.14604       45.15161       21.87515
O         34.72125       44.16976       22.78235
C         34.69230       47.68544       21.76305
C         33.62105       48.77143       21.56093
O         35.64888       47.78744       20.74245
H         33.28685       46.41482       23.75363
H         33.58761       46.14777       20.75209
H         35.18682       47.83960       22.75038
H         36.11540       48.65213       20.88093
H         32.86146       48.73854       22.36981
H         34.08999       49.77854       21.57909
H         33.11359       48.63641       20.58189
N         35.35445       44.58414       20.51738
C         36.20301       43.38852       20.32631
C         37.60341       43.61721       20.85449
O         37.76029       43.86333       22.03152
C         35.53707       42.08081       20.86573
C         34.09419       41.87994       20.31802
C         36.40549       40.84474       20.57031
C         33.98150       41.77462       18.79109
H         35.73070       45.34283       19.90258
H         36.29625       43.23680       19.22991
H         35.45959       42.12176       21.96650
H         33.45176       42.72297       20.65210
H         33.67000       40.95161       20.76037
H         35.91763       39.92993       20.97134
H         36.57601       40.71681       19.48224
H         37.39292       40.93863       21.06651
H         32.91970       41.61039       18.51068
H         34.31488       42.71048       18.29836
H         34.57071       40.92071       18.39977
N         38.68857       43.54095       20.03945
C         40.04237       43.70933       20.55070
C         40.67156       44.93597       19.91978
O         41.73319       44.85935       19.32121
C         40.83272       42.37910       20.42494
C         41.04934       41.91395       18.98339
O         40.14217       41.35887       21.10303
H         38.55545       43.34512       19.03701
H         40.02958       43.92759       21.64333
H         41.83848       42.50724       20.88856
H         40.21460       41.54844       22.07331
H         41.63864       42.64703       18.40180
H         41.61601       40.95944       18.99123
H         40.08179       41.73754       18.47196
N         40.06383       46.14300       20.10074
C         40.63808       47.41930       19.69175
C         41.31708       47.98109       20.91839
O         40.82381       48.91650       21.53063
C         39.54234       48.35965       19.12832
C         38.88138       47.78882       17.87363
O         38.55732       48.59486       20.10166
H         39.21171       46.16866       20.68323
H         41.41511       47.29029       18.90561
H         40.04612       49.31832       18.85620
H         38.19776       49.50573       19.93729
H         38.36185       46.83422       18.10318
H         38.13189       48.51363       17.48912
H         39.64114       47.61384       17.08372
N         42.43666       47.35261       21.38525
C         43.02830       47.56279       22.69742
C         42.06461       47.06616       23.76100
O         40.92788       46.72769       23.43345
C         43.43568       49.02990       22.96829
C         44.29250       49.65181       21.85575
C         44.60502       51.11967       22.19638
C         45.26669       51.89329       21.04474
N         46.58636       51.37070       20.69383
H         42.85574       46.60651       20.81042
H         43.94141       46.92516       22.75069
H         43.98958       49.07925       23.93077
H         42.52088       49.64660       23.08559
H         43.71750       49.62413       20.90543
H         45.23058       49.07084       21.72700
H         45.24009       51.16994       23.10812
H         43.64713       51.64128       22.41468
H         45.37432       52.95503       21.36077
H         44.60297       51.87083       20.15186
H         46.99193       51.96932       19.93812
H         47.21876       51.40374       21.52583
H         46.51318       50.39317       20.33370
N         42.44536       46.95346       25.05541
C         41.54645       46.46709       26.09620
C         40.96545       45.10386       25.73909
O         39.74769       45.00798       25.70981
C         42.22001       46.43265       27.48171
C         42.58259       47.84638       27.96988
C         43.24298       47.85040       29.32173
O         43.59669       49.02490       29.87594
O         43.47009       46.81130       29.92264
H         43.41848       47.20320       25.30029
H         40.68742       47.17413       26.17762
H         43.12586       45.79399       27.46466
H         41.50362       45.99456       28.21224
H         41.65271       48.45287       28.03230
H         43.27380       48.33677       27.25465
N         41.70392       43.99991       25.42769
C         43.14351       43.90445       25.33728
H         43.66708       44.84735       25.55285
H         43.50034       43.12848       26.04561
H         43.41673       43.59473       24.30596
H         41.18959       43.14278       25.20433
Ca        36.49995       43.48422       24.14070
O         36.99904       43.27346       27.81748
H         36.27746       43.65707       28.37557
H         36.56138       43.08607       26.95020
O         37.08093       46.29997       27.03951
H         36.44989       46.32451       27.80233
H         37.56368       47.16298       27.08838
O         37.75866       46.60655       23.67962
H         38.37097       47.08383       24.29401
H         37.76619       47.14919       22.85154

Ca 1.0



