%chk=apoCaM-CA-Ng.loop3.water3.frame854.chk
%nprocshared=20
%mem=10GB
%nosave
#b3lyp/svp scf=(tight,noincore,xqc) Test 
#IOP(5/87=12) Density=Current Pop=(MK,readradii) iop(6/33=2) iop(6/42=6)

apoCaM-CA-Ng.loop3.water3.frame854 

   0  1 
C         78.06776       64.82798      -19.15550
C         79.06599       65.75035      -19.78669
O         79.61128       65.40823      -20.82619
H         77.24083       64.64262      -19.87336
H         78.55596       63.86610      -18.89892
H         77.63538       65.26905      -18.23259
N         79.33509       66.96238      -19.22747
C         80.22181       67.93611      -19.85627
C         81.66361       67.41895      -19.88973
O         81.96053       66.42199      -19.24548
C         80.06753       69.28844      -19.11211
C         80.45672       70.53832      -19.84975
O         80.29175       71.71691      -19.23045
O         80.82639       70.52543      -21.00987
H         78.83433       67.22169      -18.36283
H         79.85718       68.07285      -20.88815
H         80.59475       69.22969      -18.13592
H         78.98751       69.44978      -18.90355
N         82.60683       68.04325      -20.64458
C         84.00026       67.63199      -20.75373
C         84.88906       68.69711      -20.12460
O         85.75734       68.33746      -19.34188
C         84.31657       67.33981      -22.23636
C         85.74613       66.81514      -22.45670
C         85.93959       66.32930      -23.90256
C         87.37118       65.82429      -24.13768
N         87.52542       65.29089      -25.49194
H         82.32358       68.84506      -21.21036
H         84.17782       66.68191      -20.20051
H         84.14899       68.24394      -22.86212
H         83.60361       66.55162      -22.56871
H         85.93294       65.95479      -21.77683
H         86.47458       67.62143      -22.22259
H         85.72296       67.15580      -24.61386
H         85.22743       65.49662      -24.09754
H         87.61253       65.02185      -23.40545
H         88.08616       66.66348      -23.98726
H         88.51495       64.98113      -25.62843
H         86.89542       64.46633      -25.62565
H         87.29938       66.02544      -26.20110
N         84.65602       70.02892      -20.32724
C         85.38690       71.09242      -19.63902
C         84.55031       71.76010      -18.54424
O         85.05590       72.67296      -17.90513
C         85.93951       72.11294      -20.65840
C         84.90761       72.88075      -21.45037
O         83.58708       72.68273      -21.27880
O         85.28085       73.70679      -22.26695
H         83.87790       70.30507      -20.93752
H         86.26835       70.66688      -19.11084
H         86.59675       71.57166      -21.37239
H         86.56588       72.85159      -20.11212
N         83.29955       71.31916      -18.21577
C         82.53393       71.84529      -17.09293
C         82.01295       73.26444      -17.25439
O         81.38677       73.73157      -16.31369
H         82.90103       70.51091      -18.71096
H         83.15803       71.78218      -16.17489
H         81.64704       71.19490      -16.92993
N         82.20156       74.00930      -18.38579
C         81.71218       75.38239      -18.53735
C         80.73999       75.44674      -19.75751
O         79.89270       74.36057      -19.66462
C         82.96472       76.27642      -18.67097
C         82.70369       77.75300      -18.58928
N         82.14415       78.29240      -17.48076
O         83.01435       78.47366      -19.52554
H         82.72165       73.60501      -19.17289
H         81.14498       75.67824      -17.62939
H         83.49120       76.02110      -19.61776
H         83.65243       76.03770      -17.82921
H         81.88749       77.70097      -16.67670
H         81.97112       79.30621      -17.42250
N         79.89961       76.65717      -19.83684
C         79.34524       76.89043      -21.19157
C         78.17869       75.98431      -21.58515
O         77.18364       75.95183      -20.87619
H         80.48122       77.49228      -19.62745
H         80.16115       76.84897      -21.94649
H         78.93921       77.92605      -21.21466
N         78.23302       75.24958      -22.73983
C         77.17186       74.36408      -23.24245
C         77.67063       72.90326      -23.11592
O         78.02029       72.70944      -21.79338
C         76.87964       74.71980      -24.72111
C         76.12967       76.01298      -24.91766
C         74.75294       76.06842      -24.63658
C         76.76606       77.14520      -25.45089
C         74.02255       77.23114      -24.90109
C         76.03674       78.31402      -25.69759
C         74.66290       78.35849      -25.43474
O         73.96887       79.48198      -25.70893
H         79.10361       75.29106      -23.29208
H         76.24502       74.44425      -22.63104
H         76.25978       73.95242      -25.22398
H         77.84923       74.73990      -25.26550
H         74.23793       75.19903      -24.24609
H         77.82378       77.12303      -25.67994
H         72.95764       77.25007      -24.70368
H         76.53686       79.18151      -26.10932
H         73.01301       79.54455      -25.56859
N         76.66071       71.89441      -23.50799
C         76.97836       70.47393      -23.18265
C         78.32963       70.05435      -23.75840
O         79.32111       70.71080      -23.47119
C         76.89732       70.13760      -21.65098
C         76.97832       68.61292      -21.36525
C         75.65082       70.74984      -20.98579
C         75.79623       67.77397      -21.85524
H         76.53855       71.94121      -24.54359
H         76.17783       69.87168      -23.65907
H         77.78033       70.55905      -21.13365
H         77.05813       68.46454      -20.26592
H         77.89423       68.20356      -21.82965
H         75.65826       71.85585      -21.07542
H         74.71698       70.37691      -21.45193
H         75.64141       70.50808      -19.90079
H         75.68604       67.82641      -22.95563
H         75.97382       66.71234      -21.58230
H         74.85250       68.09363      -21.36894
N         78.46101       68.92276      -24.51122
C         79.76327       68.46794      -25.00154
C         79.76245       67.96405      -26.44000
O         80.84609       67.70508      -26.94526
C         80.28919       67.35496      -24.08398
O         79.44296       66.23387      -24.12064
H         77.63491       68.31629      -24.61564
H         80.49268       69.30661      -24.95587
H         80.39254       67.74669      -23.04934
H         81.30817       67.04009      -24.39350
H         78.88288       66.25878      -23.30179
N         78.61710       67.70619      -27.13761
C         78.65076       67.05328      -28.44447
C         79.17083       67.98634      -29.53282
O         79.18402       69.18864      -29.30635
C         77.24328       66.56950      -28.79836
H         77.70281       67.87091      -26.69831
H         79.30416       66.15972      -28.35072
H         76.87206       65.88194      -28.00865
H         76.54618       67.43046      -28.88171
H         77.24175       66.01651      -29.74756
N         79.61782       67.54935      -30.75217
C         79.88554       66.15478      -31.09721
C         79.85813       65.95170      -32.61251
O         80.58729       66.65797      -33.29545
C         81.28664       65.78523      -30.59070
H         79.97452       68.27152      -31.39836
H         79.17771       65.47973      -30.59335
H         81.51574       64.72577      -30.83593
H         82.05901       66.43457      -31.05784
H         81.35332       65.90898      -29.49027
N         79.12307       64.98199      -33.24255
C         78.25404       64.02026      -32.56950
C         76.97418       64.64732      -32.03507
O         76.26025       63.97233      -31.30569
C         77.88282       62.81925      -33.48718
C         76.87219       63.10194      -34.62475
C         77.38295       64.02331      -35.69145
O         76.75223       65.18777      -35.93630
O         78.35931       63.71334      -36.35573
H         79.27449       64.88693      -34.25487
H         78.84378       63.58534      -31.73233
H         77.40468       62.05077      -32.83963
H         78.80804       62.36145      -33.90022
H         75.93494       63.51475      -34.19408
H         76.61241       62.13791      -35.11244
N         76.57684       65.89911      -32.40376
C         75.31404       66.46032      -31.97198
H         74.47816       65.80803      -32.30373
H         75.28268       66.55302      -30.86898
H         75.17562       67.46770      -32.41761
H         77.15474       66.46279      -33.04257
Ca        80.14639       73.36109      -21.64385
O         82.25718       75.22346      -23.52613
H         83.00315       75.81902      -23.78909
H         82.69782       74.37903      -23.25721
O         82.90682       71.11375      -23.78922
H         82.80821       70.40118      -24.46918
H         83.66688       71.66069      -24.11164
O         80.39874       73.04655      -25.07132
H         79.57081       72.73726      -25.51789
H         80.85066       73.60938      -25.74871

Ca 1.0



