%chk=apoCaM-CA-Ng.loop1.water3.frame954.chk
%nprocshared=20
%mem=10GB
%nosave
#b3lyp/svp scf=(tight,noincore,xqc) Test 
#IOP(5/87=12) Density=Current Pop=(MK,readradii) iop(6/33=2) iop(6/42=6)

apoCaM-CA-Ng.loop1.water3.frame954 

   0  1 
C         90.30336       73.33667       34.85011
C         89.03781       72.69556       35.34263
O         88.42360       71.95127       34.59232
H         91.03832       72.54998       34.57994
H         90.08370       73.95563       33.95561
H         90.75808       73.98926       35.62571
N         88.59321       72.93665       36.60709
C         87.37231       72.36213       37.16539
C         86.37437       73.45749       37.53297
O         86.69658       74.63061       37.39717
C         87.71625       71.31957       38.26783
C         88.77093       71.62532       39.31850
O         89.11259       70.72663       40.07033
O         89.39375       72.81435       39.42107
H         89.14763       73.56999       37.19943
H         86.83500       71.78097       36.38307
H         88.13853       70.44927       37.71881
H         86.78335       70.96978       38.75871
N         85.09522       73.13478       37.90133
C         84.02152       74.11894       38.05678
C         83.53817       74.13338       39.49344
O         83.10531       73.10128       39.98713
C         82.86634       73.77258       37.09085
C         81.77649       74.86285       37.05997
C         80.54851       74.48532       36.21081
C         80.86909       74.19831       34.73456
N         79.64440       73.92371       33.98152
H         84.85022       72.13941       38.01750
H         84.39270       75.13107       37.78332
H         82.42083       72.79669       37.38563
H         83.28805       73.66963       36.06853
H         82.21893       75.80826       36.67581
H         81.40801       75.05010       38.09152
H         79.83235       75.33509       36.26084
H         80.05647       73.59322       36.65587
H         81.53760       73.31390       34.65853
H         81.38585       75.07443       34.28487
H         79.01862       74.76175       33.99492
H         79.89217       73.70402       32.98966
H         79.14219       73.10334       34.39293
N         83.60248       75.28355       40.22669
C         83.26889       75.36230       41.65488
C         83.40737       76.79177       42.18203
O         84.12770       77.57687       41.58130
C         84.19940       74.44154       42.48453
C         85.64851       74.73400       42.21093
O         86.43487       74.96060       43.11616
O         86.06590       74.70901       40.93454
H         83.93460       76.13021       39.74152
H         82.22653       75.01885       41.76699
H         84.02230       73.38673       42.19802
H         83.98961       74.51119       43.57042
N         82.80247       77.23046       43.32427
C         81.83831       76.50069       44.13210
C         80.53477       76.24308       43.40638
O         80.42833       76.49019       42.21424
H         83.02829       78.18535       43.64397
H         81.58972       77.13797       45.00890
H         82.26369       75.55485       44.51922
N         79.47198       75.75665       44.10262
C         78.17558       75.47065       43.49651
C         77.59400       76.70943       42.81927
O         77.34817       76.65822       41.62205
C         77.21914       74.90792       44.57213
C         75.88039       74.51766       44.01384
O         75.79925       73.66179       43.14728
O         74.75996       75.09663       44.48595
H         79.59936       75.58107       45.11207
H         78.32126       74.67884       42.72624
H         77.07731       75.65952       45.37875
H         77.67827       74.00292       45.02815
N         77.34692       77.85552       43.51817
C         76.75783       79.04933       42.91571
C         77.64705       79.78193       41.91305
O         77.18784       80.77226       41.36181
H         77.53787       77.87052       44.53121
H         76.52230       79.77419       43.72474
H         75.79949       78.76517       42.42902
N         78.91846       79.37888       41.63638
C         79.83897       80.04434       40.71285
C         81.08582       80.41417       41.48857
O         81.62376       79.54248       42.15296
C         80.20048       79.09338       39.55198
C         78.96325       78.71612       38.73511
O         81.11829       79.72235       38.69233
H         79.27784       78.55122       42.11800
H         79.38588       80.96131       40.27281
H         80.63367       78.14670       39.95642
H         82.02631       79.42003       38.95675
H         78.21882       78.18767       39.36627
H         78.49097       79.62676       38.30700
H         79.25588       78.04206       37.90258
N         81.58729       81.68234       41.49145
C         82.65239       82.09746       42.40777
C         82.11320       83.07225       43.45064
O         82.82798       83.36901       44.39574
C         83.92161       82.61289       41.67691
C         83.66152       83.89592       40.85159
C         84.51445       81.48068       40.81529
C         84.95419       84.54163       40.34072
H         81.15185       82.38770       40.87685
H         82.98347       81.22451       43.01332
H         84.66628       82.85881       42.46736
H         83.16532       84.65034       41.49847
H         82.99067       83.67599       39.99375
H         85.48614       81.77171       40.37020
H         84.70469       80.58321       41.44262
H         83.81613       81.19867       39.99890
H         85.50220       83.87672       39.64394
H         84.71293       85.47761       39.79526
H         85.61651       84.79665       41.19646
N         80.83057       83.53951       43.38414
C         80.16583       84.26411       44.45234
C         79.71430       85.62919       43.97917
O         79.08967       85.73996       42.93385
C         78.98096       83.41736       44.99549
C         77.93544       83.01273       43.94490
O         79.48316       82.24114       45.57609
H         80.24956       83.32672       42.56790
H         80.84704       84.41259       45.31825
H         78.44477       84.01172       45.77262
H         79.83537       82.48825       46.47108
H         78.38162       82.35985       43.16787
H         77.12692       82.42923       44.43286
H         77.47512       83.89668       43.46144
N         79.94937       86.71610       44.76643
C         79.46862       88.05069       44.45195
C         80.53259       89.07824       44.79115
O         80.94041       89.81629       43.90415
C         78.12733       88.31116       45.19638
C         77.55274       89.69742       44.88967
O         78.26506       88.18089       46.58769
H         80.39247       86.56619       45.68456
H         79.23767       88.12900       43.36467
H         77.37539       87.57115       44.83240
H         78.21549       87.21183       46.79743
H         77.39033       89.81766       43.79784
H         76.57737       89.82095       45.40718
H         78.23636       90.49728       45.24552
N         80.97333       89.22354       46.07576
C         81.83691       90.31553       46.50454
C         82.99234       89.84627       47.36802
O         82.98141       88.72409       47.85558
C         80.98371       91.33307       47.30145
C         80.38154       90.73450       48.59808
C         79.39983       91.66485       49.31599
C         80.04164       92.95897       49.82728
N         79.05811       93.76258       50.55174
H         80.60488       88.59052       46.79613
H         82.25299       90.83580       45.61373
H         80.15690       91.67721       46.64253
H         81.60993       92.21405       47.55399
H         81.19461       90.44299       49.29812
H         79.79523       89.82656       48.35739
H         78.98902       91.10819       50.18761
H         78.55718       91.90514       48.63160
H         80.43351       93.55302       48.97469
H         80.88679       92.71057       50.50717
H         78.69935       93.23166       51.37877
H         79.51210       94.64300       50.88466
H         78.26116       94.00843       49.92010
N         84.00943       90.71374       47.63283
C         85.07284       90.48434       48.60617
C         85.71948       89.10558       48.48747
O         85.70243       88.40002       49.48656
C         86.10983       91.63484       48.54340
C         87.12829       91.59002       49.69054
C         88.10191       92.72960       49.57803
O         88.17759       93.65418       50.55423
O         88.83266       92.82059       48.60391
H         83.99668       91.62153       47.14086
H         84.59823       90.53744       49.61302
H         85.56973       92.60564       48.61478
H         86.64751       91.61808       47.57391
H         87.69565       90.63587       49.67339
H         86.58583       91.66497       50.65838
N         86.29845       88.60273       47.35869
C         86.35914       89.24995       46.06631
H         87.42086       89.37055       45.76837
H         85.84887       88.60503       45.32039
H         85.86843       90.23615       46.04150
H         86.71322       87.65909       47.41340
Ca        88.12526       74.46450       40.17340
O         89.70576       73.59667       42.54450
H         89.76849       74.01336       43.44020
H         90.43771       72.93031       42.52479
O         86.87725       77.30543       39.74685
H         86.17476       77.36060       39.05151
H         86.54284       77.87273       40.48591
O         89.04925       77.13559       42.22662
H         88.91590       78.08212       41.96786
H         88.87046       77.11721       43.20035

Ca 1.0



