%chk=apoCaM-CA-Ng.loop2.water4.frame1352.chk
%nprocshared=20
%mem=10GB
%nosave
#b3lyp/svp scf=(tight,noincore,xqc) Test 
#IOP(5/87=12) Density=Current Pop=(MK,readradii) iop(6/33=2) iop(6/42=6)

apoCaM-CA-Ng.loop2.water4.frame1352 

   -2  1 
C         65.51641       53.49562       63.87945
C         65.61045       52.22450       63.06371
O         66.70353       51.97048       62.57926
H         64.53632       53.73579       64.31753
H         66.23881       53.43658       64.72078
H         65.79909       54.35622       63.23737
N         64.58063       51.35096       62.83095
C         63.20759       51.46648       63.32172
C         62.18838       51.61907       62.19635
O         61.02226       51.81358       62.51137
C         62.86964       50.27343       64.24752
C         62.87501       48.90584       63.60597
O         62.60377       47.82702       64.36377
O         63.11022       48.75355       62.41910
H         64.80586       50.52502       62.25604
H         63.08602       52.36707       63.93972
H         61.86138       50.43466       64.68660
H         63.60427       50.26580       65.08168
N         62.53787       51.56999       60.87528
C         61.59369       51.80549       59.78694
C         61.40248       50.58447       58.89505
O         60.66848       50.70028       57.92287
C         62.10249       52.99274       58.96055
H         63.51642       51.38870       60.60966
H         60.58977       52.07608       60.18009
H         61.39209       53.23700       58.14227
H         62.20424       53.88904       59.60924
H         63.09481       52.76127       58.51582
N         62.00304       49.38499       59.15597
C         61.86428       48.21109       58.29296
C         61.20942       47.04495       59.02757
O         60.99765       47.11922       60.23066
C         63.26076       47.81576       57.75723
C         64.20660       47.50404       58.88824
O         65.20737       48.17966       59.06665
O         63.90289       46.51816       59.74970
H         62.59605       49.29172       59.99030
H         61.21378       48.44713       57.42322
H         63.66691       48.66350       57.16205
H         63.18546       46.93369       57.08671
N         60.84573       45.92677       58.33421
C         60.24827       44.75031       58.95215
C         61.27732       43.89213       59.65479
O         62.45130       44.23285       59.65487
H         60.96200       45.92078       57.30936
H         59.81986       44.11171       58.14974
H         59.41994       45.04857       59.63023
N         60.90822       42.71642       60.24447
C         61.88881       41.80932       60.84648
C         62.84140       41.27236       59.78506
O         62.59349       41.46671       58.60146
C         61.19063       40.63427       61.56481
C         60.33807       41.11235       62.71538
N         59.00349       40.88683       62.73484
O         60.86351       41.70290       63.64749
H         59.90801       42.46222       60.25252
H         62.48206       42.38233       61.59230
H         61.94768       39.93435       61.97908
H         60.57440       40.07198       60.82848
H         58.53748       40.38919       61.96256
H         58.43123       41.21323       63.52805
N         63.98007       40.60547       60.14050
C         64.94249       40.12163       59.15675
C         65.54926       41.25993       58.34738
O         65.24737       42.41245       58.62240
H         64.17933       40.44382       61.13925
H         64.41676       39.41466       58.48073
H         65.76219       39.57566       59.67074
N         66.38606       41.05044       57.29209
C         66.81562       39.74225       56.81468
C         67.92046       39.16376       57.68100
O         67.75565       38.04625       58.15031
C         67.28390       39.80758       55.33583
C         66.12469       40.17126       54.39851
O         68.32767       40.73481       55.18193
H         66.67882       41.88322       56.75684
H         65.95142       39.04061       56.80877
H         67.63912       38.78756       55.05290
H         68.79461       40.50639       54.33620
H         66.47650       40.16596       53.34522
H         65.30743       39.42387       54.49233
H         65.71985       41.17774       54.63204
N         69.09448       39.83906       57.88947
C         70.25712       39.23429       58.54800
C         70.57167       39.90275       59.87757
O         70.03503       40.97298       60.13089
C         71.47926       39.21013       57.56666
C         71.95847       40.59205       57.02492
C         71.13082       38.32077       56.35998
C         72.57214       41.53060       58.06331
H         69.17935       40.80146       57.53339
H         70.00302       38.18886       58.80146
H         72.34510       38.73342       58.07206
H         71.14294       41.11895       56.48624
H         72.76666       40.40317       56.28451
H         72.00542       38.22568       55.68160
H         70.84986       37.30136       56.69820
H         70.28713       38.74975       55.77864
H         73.40645       41.02265       58.58862
H         72.97250       42.43148       57.55120
H         71.83130       41.89099       58.79467
N         71.36011       39.32910       60.84290
C         71.90229       37.96724       60.82009
C         73.36407       37.91677       61.23701
O         73.71917       38.56406       62.21285
C         71.14239       37.12284       61.86567
C         69.66983       37.03180       61.59001
O         69.26428       36.50963       60.56453
O         68.78761       37.50047       62.49281
H         71.47284       39.85395       61.72511
H         71.76949       37.45926       59.84601
H         71.29148       37.56240       62.87730
H         71.55146       36.09041       61.87505
N         74.20660       36.99448       60.67579
C         75.49347       36.63510       61.27672
C         76.65043       36.76810       60.30048
O         76.44573       36.48550       59.12851
C         75.45408       35.15731       61.73094
C         74.27231       34.82564       62.61172
C         74.06503       35.48905       63.83346
C         73.36277       33.83000       62.20985
C         72.96137       35.16590       64.63099
C         72.26610       33.50696       63.01221
C         72.06359       34.17591       64.22090
H         73.87166       36.43061       59.87963
H         75.67380       37.23984       62.17783
H         76.38880       34.91398       62.28096
H         75.42447       34.50750       60.82753
H         74.75153       36.25640       64.16707
H         73.50147       33.29999       61.27553
H         72.80140       35.68222       65.56830
H         71.57307       32.73852       62.69442
H         71.21129       33.92566       64.83902
N         77.93723       37.01675       60.71599
C         78.37528       37.33280       62.07224
C         77.74058       38.59814       62.60640
O         77.21442       38.59119       63.70949
C         79.89174       37.54277       61.92832
C         80.22678       36.59980       60.79884
C         79.07751       36.87318       59.83211
H         78.17783       36.46015       62.73427
H         80.11250       38.56397       61.54215
H         80.46531       37.39857       62.86908
H         81.24022       36.72323       60.36187
H         80.12623       35.55941       61.18678
H         79.21930       37.82281       59.27107
H         78.98918       36.01148       59.13516
N         77.72692       39.71996       61.83431
C         77.12082       40.97513       62.25252
C         77.94088       41.57882       63.38323
O         79.12107       41.82250       63.17413
C         77.06280       41.96161       61.06516
C         76.13716       41.44717       59.94761
C         76.11656       42.39477       58.78395
O         75.70148       43.66483       58.95048
O         76.46571       42.01456       57.67753
H         78.14539       39.66253       60.89387
H         76.07179       40.78446       62.55971
H         78.08821       42.12327       60.66304
H         76.66740       42.93795       61.42334
H         75.10486       41.33960       60.34448
H         76.47344       40.45041       59.59028
N         77.42271       41.86160       64.61215
C         76.04231       41.63375       64.97893
H         75.37073       42.22488       64.32084
H         75.79667       40.55422       64.90235
H         75.87470       41.95493       66.02880
H         78.04525       42.27054       65.32651
Ca        64.95408       46.25226       61.71225
O         63.82802       44.71609       64.48121
H         63.39090       43.84467       64.65489
H         63.93027       45.12593       65.37683
O         66.92651       46.39770       63.90143
H         66.76348       45.47486       63.58000
H         67.13425       46.91473       63.08230
O         65.09555       43.21811       61.68140
H         65.36447       43.71872       60.87111
H         65.90628       42.71245       61.93875
O         61.01566       45.19692       62.90573
H         60.92240       45.18438       63.89122
H         61.25306       44.26585       62.67067

Ca 1.0



