%chk=apoCaM-CA-Ng.loop1.water3.frame1128.chk
%nprocshared=20
%mem=10GB
%nosave
#b3lyp/svp scf=(tight,noincore,xqc) Test 
#IOP(5/87=12) Density=Current Pop=(MK,readradii) iop(6/33=2) iop(6/42=6)

apoCaM-CA-Ng.loop1.water3.frame1128 

   0  1 
C        104.24417       63.70764       84.44105
C        105.18854       63.53279       83.28162
O        105.20560       64.37777       82.39952
H        103.19417       63.75613       84.06022
H        104.31230       62.85153       85.15610
H        104.48635       64.65036       84.98422
N        105.99774       62.43811       83.21414
C        106.92291       62.13362       82.11464
C        106.24023       61.76154       80.78257
O        106.93273       61.27897       79.89325
C        107.89984       61.01342       82.56808
C        107.27812       59.68028       82.90715
O        106.07638       59.49015       82.80484
O        108.07039       58.68136       83.34228
H        105.97940       61.79677       84.02201
H        107.57532       63.01418       81.92632
H        108.43772       61.37631       83.47193
H        108.66180       60.84818       81.77609
N        104.90855       61.97557       80.55869
C        104.20031       61.59352       79.33806
C        104.85509       62.19910       78.09397
O        105.25876       61.41045       77.25040
C        102.68106       61.92041       79.44453
C        102.03751       61.19414       80.64703
C        100.60355       61.65182       80.92062
C        100.08638       60.97928       82.20317
N         98.74067       61.43526       82.53938
H        104.35818       62.43535       81.28329
H        104.26449       60.48502       79.24012
H        102.15743       61.60923       78.51373
H        102.51653       63.00620       79.56238
H        102.59375       61.40895       81.57766
H        102.07474       60.09608       80.48175
H         99.94973       61.40602       80.05698
H        100.59860       62.75453       81.07444
H        100.76700       61.22491       83.05118
H        100.08405       59.87507       82.06915
H         98.07851       61.19973       81.76592
H         98.43065       60.95453       83.41497
H         98.74436       62.46803       82.70607
N        105.06009       63.53453       77.86729
C        104.68877       64.64076       78.74402
C        105.92087       65.34351       79.28749
O        107.03421       64.93251       78.99154
C        103.71466       65.58768       78.00787
C        104.26015       66.15608       76.72667
O        105.37575       66.90848       76.73053
O        103.67227       65.95466       75.67620
H        105.54849       63.78709       76.99256
H        104.17597       64.27805       79.64613
H        103.42801       66.42683       78.67182
H        102.78833       65.01699       77.77512
N        105.78559       66.35258       80.19564
C        106.92103       66.89315       80.92127
C        107.84277       67.75754       80.09952
O        107.51767       68.13851       78.98427
H        104.84152       66.65587       80.48017
H        107.48784       66.04271       81.35927
H        106.56074       67.52575       81.76244
N        109.04297       68.10650       80.64165
C        109.98817       69.04081       80.04270
C        110.40885       70.07526       81.09172
O        110.36469       69.76431       82.27577
C        111.21137       68.27314       79.50295
C        110.82250       67.42781       78.32224
O        110.36730       67.95713       77.31980
O        110.98450       66.09178       78.35555
H        109.30293       67.67418       81.54234
H        109.51045       69.55955       79.19116
H        111.65208       67.64268       80.30610
H        111.99728       68.97099       79.15291
N        110.87672       71.31818       80.77053
C        111.02403       71.82031       79.41601
C        109.71141       72.05953       78.69389
O        108.64699       72.01323       79.29377
H        111.19123       71.93078       81.54097
H        111.65353       71.11834       78.83894
H        111.56231       72.79371       79.44079
N        109.75652       72.34118       77.36244
C        108.60855       72.68161       76.51581
C        107.50134       71.56662       76.39070
O        107.82194       70.36786       77.06119
C        109.10628       73.08125       75.10672
C        109.89565       74.40196       75.14061
O        108.01447       73.24195       74.23539
H        110.69456       72.35029       76.93343
H        108.13273       73.59498       76.94584
H        109.76749       72.25574       74.74514
H        108.31211       72.92756       73.34036
H        110.26748       74.63501       74.11648
H        109.22796       75.23602       75.47296
H        110.76996       74.35267       75.83195
N        106.23269       72.14415       76.86569
C        104.97918       71.36872       76.80537
C        104.69200       70.72933       75.44829
O        105.38976       69.81593       75.03980
C        104.84961       70.31655       77.95731
C        105.09017       70.90160       79.37941
C        103.47255       69.62008       77.91400
C        104.12637       72.02155       79.79737
H        106.35871       72.52485       77.84288
H        104.17470       72.11230       76.98798
H        105.61293       69.52830       77.80279
H        106.12757       71.27776       79.46522
H        105.00973       70.07894       80.12028
H        102.64498       70.35397       78.00888
H        103.32932       69.07221       76.96030
H        103.39219       68.87966       78.73683
H        104.20373       72.90066       79.12509
H        103.07686       71.66462       79.81251
H        104.38179       72.35881       80.82360
N        103.55935       71.07749       74.77711
C        102.94589       70.21840       73.76526
C        103.46435       70.41034       72.34257
O        102.92463       69.75658       71.45994
C        101.39472       70.35280       73.85062
C        100.87121       71.72092       73.39365
O        100.96623       70.13243       75.17294
H        102.97764       71.81202       75.20366
H        103.14447       69.15652       74.03894
H        100.91833       69.59279       73.18921
H        101.15705       69.18274       75.39146
H         99.76383       71.73909       73.48560
H        101.27402       72.54940       74.01132
H        101.13535       71.90446       72.33180
N        104.50107       71.24434       72.02897
C        104.95348       71.45877       70.65101
C        106.33918       70.88604       70.43175
O        107.26731       71.25269       71.13717
C        104.93807       72.95630       70.28270
C        103.52011       73.52739       70.30781
O        105.76203       73.68219       71.15970
H        104.99388       71.74360       72.78368
H        104.27162       70.95377       69.93210
H        105.32210       73.04085       69.23612
H        106.10833       74.46247       70.65279
H        103.08540       73.45952       71.32717
H        103.54266       74.59289       69.99448
H        102.87390       72.96800       69.59692
N        106.54126       69.99065       69.42003
C        107.81840       69.37531       69.08510
C        108.28516       68.50228       70.22996
O        109.38806       68.67717       70.73068
C        108.87769       70.41423       68.64312
C        108.39300       71.26999       67.45892
C        109.45601       72.25951       66.94946
C        110.65798       71.55991       66.28892
N        111.59862       72.53649       65.74088
H        105.73759       69.71698       68.83361
H        107.65267       68.69685       68.21668
H        109.78488       69.84765       68.34890
H        109.14869       71.08586       69.48518
H        107.51086       71.85880       67.79294
H        108.07401       70.61820       66.61638
H        109.79819       72.91035       67.78408
H        108.97373       72.90532       66.18358
H        110.29227       70.90877       65.46369
H        111.19456       70.92529       67.02462
H        112.39294       72.02778       65.28849
H        111.12480       73.12871       65.02028
H        111.97545       73.14190       66.50616
N        107.46308       67.51549       70.68421
C        107.81906       66.59749       71.75725
C        106.84941       66.79504       72.96501
O        107.55794       66.65232       74.17640
C        107.83211       65.14706       71.19974
C        108.94716       64.92635       70.16369
C        108.80392       63.58400       69.49800
O        109.77228       62.65540       69.62763
O        107.81763       63.33950       68.81664
H        106.54616       67.40953       70.22818
H        108.84030       66.82901       72.12773
H        106.85230       64.93863       70.71654
H        107.97219       64.41325       72.02449
H        109.93088       64.99355       70.68236
H        108.91207       65.70198       69.36693
N        105.77304       65.78440       72.97723
C        104.65734       66.07213       72.07136
H        104.13100       67.00828       72.36582
H        104.98715       66.13291       71.01864
H        103.93586       65.22153       72.11108
H        105.38451       65.70800       73.94578
Ca       107.71596       68.53036       75.59228
O        110.42127       67.16327       74.39351
H        110.99827       66.68183       75.03806
H        110.81229       68.07218       74.34240
O        108.63506       70.24101       73.51004
H        107.98335       69.60134       73.12753
H        109.52020       69.84942       73.30523
O        108.16871       65.66414       76.66279
H        109.11850       65.73808       76.39894
H        107.97851       64.69121       76.60970

Ca 1.0



