%chk=apoCaM-CA-Ng.loop2.water4.frame1452.chk
%nprocshared=20
%mem=10GB
%nosave
#b3lyp/svp scf=(tight,noincore,xqc) Test 
#IOP(5/87=12) Density=Current Pop=(MK,readradii) iop(6/33=2) iop(6/42=6)

apoCaM-CA-Ng.loop2.water4.frame1452 

   -2  1 
C         36.22242      102.09296      116.62671
C         35.80121      101.53889      115.29089
O         36.55740      101.68441      114.34185
H         37.21615      102.58442      116.55281
H         35.48810      102.84724      116.97877
H         36.30075      101.26886      117.36749
N         34.62325      100.87407      115.10232
C         33.63212      100.63389      116.14922
C         32.27422      101.25412      115.83740
O         31.41018      101.17072      116.69998
C         33.50517       99.11755      116.42947
C         32.99592       98.27373      115.28625
O         32.85427       96.94754      115.46526
O         32.70050       98.76388      114.20915
H         34.43619      100.50746      114.15705
H         33.96152      101.09591      117.10113
H         32.81627       98.96952      117.28933
H         34.50394       98.73159      116.72760
N         31.99749      101.88568      114.65392
C         30.69840      102.48496      114.36324
C         30.05222      101.77805      113.18152
O         29.65993      102.43069      112.22452
C         30.89372      103.98425      114.09495
H         32.71745      101.94767      113.92042
H         30.01096      102.37597      115.22965
H         29.91839      104.47870      113.90118
H         31.37244      104.47291      114.96934
H         31.55108      104.12968      113.20875
N         29.92501      100.41908      113.18710
C         29.36749       99.64358      112.06838
C         29.29384       98.14770      112.37549
O         29.69798       97.72975      113.45268
C         30.14194       99.92381      110.74740
C         31.64796      100.02346      110.86882
O         32.18213      101.08485      110.58620
O         32.43838       99.00057      111.25415
H         30.27236       99.92505      114.02223
H         28.30950       99.94867      111.91174
H         29.79206      100.90850      110.37068
H         29.86461       99.20388      109.95299
N         28.75107       97.27656      111.46421
C         28.61995       95.84794      111.71612
C         29.46314       95.03244      110.76398
O         30.47122       94.49649      111.19978
H         28.40629       97.63429      110.56155
H         27.55533       95.53741      111.64618
H         28.94571       95.60656      112.74742
N         29.08852       94.83337      109.46757
C         29.86448       94.01015      108.54164
C         30.26318       94.81423      107.32017
O         29.88172       94.48017      106.20544
C         29.09631       92.71693      108.18614
C         28.94320       91.81063      109.38589
N         30.03305       91.30480      110.01563
O         27.82612       91.51481      109.78138
H         28.19923       95.23899      109.13603
H         30.82631       93.68818      108.99320
H         29.66588       92.14319      107.42152
H         28.10218       92.97318      107.75864
H         30.98624       91.52400      109.69052
H         29.92817       90.68066      110.82916
N         31.12664       95.85582      107.46709
C         31.70462       96.54644      106.32030
C         32.75940       97.57391      106.71537
O         32.93413       97.82556      107.89887
H         31.43009       96.09104      108.42336
H         30.90303       97.04035      105.72796
H         32.20303       95.77667      105.69235
N         33.54070       98.22139      105.79874
C         33.48268       98.02699      104.35090
C         34.78949       97.45468      103.78851
O         34.81385       97.14732      102.60506
C         33.15559       99.37119      103.66145
C         31.83264       99.96164      104.16218
O         34.19454      100.28683      103.90408
H         34.22557       98.90392      106.16002
H         32.68449       97.30261      104.09062
H         33.06420       99.17928      102.56582
H         34.21045      100.92018      103.14012
H         30.99726       99.25499      103.97477
H         31.88415      100.18043      105.25053
H         31.62138      100.91261      103.62920
N         35.91335       97.30518      104.55483
C         37.18039       96.74342      104.08271
C         37.57482       95.62874      105.05475
O         37.79538       95.96185      106.21213
C         38.26600       97.86960      104.07205
C         37.90189       99.05528      103.13363
C         39.67044       97.32881      103.74282
C         37.89651       98.73074      101.63488
H         35.89823       97.62129      105.53367
H         37.09956       96.35845      103.05021
H         38.31745       98.29465      105.09991
H         38.63863       99.87302      103.29334
H         36.90562       99.45740      103.41448
H         40.41253       98.15567      103.76890
H         39.99027       96.57374      104.49013
H         39.69233       96.85205      102.74317
H         38.90409       98.41749      101.29174
H         37.16171       97.93901      101.39092
H         37.62311       99.64390      101.06485
N         37.71111       94.30206      104.73960
C         37.43936       93.66163      103.44673
C         37.83207       92.17167      103.45285
O         38.22784       91.64450      104.48342
C         35.92916       93.76677      103.08862
C         34.99581       93.14075      104.09781
O         35.45792       92.55677      105.22091
O         33.79255       93.17390      103.89754
H         38.03291       93.70556      105.51642
H         38.05381       94.16165      102.66643
H         35.74630       93.29425      102.10134
H         35.62431       94.81560      102.98407
N         37.70378       91.42272      102.31732
C         37.90460       89.97567      102.27363
C         38.97286       89.61510      101.24579
O         38.84283       90.05605      100.11154
C         36.57964       89.30662      101.85691
C         36.69121       87.80447      101.94332
C         36.82043       87.02820      100.78028
C         36.68740       87.17041      103.19800
C         36.95603       85.63977      100.87352
C         36.80810       85.78086      103.28575
C         36.94698       85.01639      102.12454
H         37.39622       91.88757      101.44992
H         38.16836       89.59023      103.27794
H         36.33540       89.62590      100.81917
H         35.73753       89.63792      102.50352
H         36.83849       87.49862       99.80523
H         36.58542       87.75256      104.10588
H         37.07123       85.04720       99.97551
H         36.79799       85.29756      104.25421
H         37.04894       83.94131      102.19433
N         40.02576       88.78025      101.51664
C         40.29635       88.12163      102.78489
C         40.78064       89.11257      103.82307
O         40.39433       88.98200      104.97494
C         41.33307       87.05393      102.41111
C         42.10551       87.70093      101.28681
C         40.99216       88.39399      100.50271
H         39.42195       87.56590      103.18633
H         41.93214       86.65191      103.25606
H         40.78244       86.20168      101.94779
H         42.76755       88.46634      101.74129
H         42.73912       87.01848      100.68136
H         41.41905       89.26066       99.95298
H         40.48846       87.69983       99.79404
N         41.54661       90.18287      103.47331
C         41.95529       91.20444      104.42543
C         43.08231       90.66127      105.29186
O         44.12013       90.32358      104.73965
C         42.41502       92.47514      103.67484
C         41.26203       93.07924      102.84498
C         41.66551       94.29816      102.06502
O         40.84004       94.85713      101.36100
O         42.92374       94.77734      102.11630
H         41.78959       90.31432      102.48209
H         41.07422       91.50647      105.02922
H         43.26779       92.22483      103.00498
H         42.75422       93.23398      104.41412
H         40.43345       93.35743      103.52938
H         40.87987       92.33430      102.11561
N         42.99176       90.52922      106.64611
C         41.81994       90.87635      107.41951
H         40.95322       90.26298      107.10098
H         42.00643       90.67097      108.49511
H         41.58679       91.95490      107.30151
H         43.80574       90.15449      107.15843
Ca        31.93574       96.89639      111.88008
O         33.30823       93.73152      112.02102
H         32.80734       92.93520      112.32946
H         33.91227       93.38725      111.31623
O         31.10743       94.69050      114.19435
H         30.74498       93.81700      113.90097
H         30.35811       95.11970      114.67861
O         34.44376       96.01792      110.22738
H         33.52093       96.10274      109.88054
H         35.01839       96.17337      109.43688
O         35.06308       95.88318      113.58850
H         35.97379       95.88999      113.20043
H         35.20764       95.73213      114.55640

Ca 1.0



