%chk=apoCaM-CA-Ng.loop2.water4.frame401.chk
%nprocshared=20
%mem=10GB
%nosave
#b3lyp/svp scf=(tight,noincore,xqc) Test 
#IOP(5/87=12) Density=Current Pop=(MK,readradii) iop(6/33=2) iop(6/42=6)

apoCaM-CA-Ng.loop2.water4.frame401 

   -2  1 
C         76.30324       79.45942       -4.08183
C         74.85748       79.10662       -4.27117
O         74.00641       79.93235       -3.97209
H         76.55713       80.34486       -4.70095
H         76.48511       79.70568       -3.02034
H         76.97033       78.61968       -4.36895
N         74.50020       77.89867       -4.79083
C         73.11013       77.52576       -5.02062
C         72.39375       77.33436       -3.69424
O         72.75799       76.43167       -2.95311
C         73.04619       76.22760       -5.85699
C         71.65075       75.81651       -6.25353
O         71.49260       74.80581       -6.91868
O         70.57489       76.54798       -5.90139
H         75.24740       77.24440       -5.07170
H         72.63395       78.33286       -5.62198
H         73.51988       75.39720       -5.28794
H         73.62846       76.38043       -6.79182
N         71.36620       78.15403       -3.33172
C         70.61096       77.99384       -2.09182
C         70.86343       79.16012       -1.15964
O         71.58431       80.07604       -1.53219
C         69.12107       77.87671       -2.43218
H         71.11052       78.93484       -3.95656
H         70.92359       77.07277       -1.55527
H         68.95507       77.01289       -3.10984
H         68.50989       77.72145       -1.51923
H         68.76812       78.80034       -2.94122
N         70.29173       79.19386        0.08105
C         70.49860       80.29653        1.00915
C         69.20520       81.06476        1.12823
O         68.27477       80.58661        1.76373
C         70.96843       79.78739        2.38836
C         72.25449       79.01750        2.31066
O         73.27633       79.55996        1.92387
O         72.28819       77.72670        2.69362
H         69.66056       78.42966        0.36662
H         71.27367       80.99064        0.61662
H         70.18686       79.12327        2.81997
H         71.11029       80.64733        3.07869
N         69.05662       82.24010        0.45421
C         67.83295       83.02157        0.47244
C         68.06002       84.47914        0.81099
O         67.07184       85.19842        0.85513
H         69.82361       82.55959       -0.15645
H         67.09949       82.60074        1.19429
H         67.37658       82.98087       -0.53892
N         69.30319       85.00525        1.03941
C         69.52100       86.41263        1.35944
C         70.34579       87.13325        0.29827
O         70.51388       88.33746        0.43732
C         70.20678       86.51864        2.73269
C         69.37843       85.85730        3.80651
N         69.85734       84.79199        4.49043
O         68.26045       86.28376        4.05562
H         70.13630       84.40159        1.00339
H         68.54989       86.95307        1.41257
H         70.35604       87.58545        3.00770
H         71.20750       86.03712        2.67018
H         70.79392       84.41172        4.29044
H         69.28582       84.33837        5.21834
N         70.86852       86.50067       -0.79800
C         71.58571       87.22061       -1.84350
C         72.86514       87.87127       -1.35975
O         73.26202       87.67594       -0.21819
H         70.72252       85.49105       -0.93598
H         70.91097       88.00663       -2.24666
H         71.84126       86.52818       -2.67474
N         73.54628       88.71204       -2.19323
C         74.73223       89.45218       -1.76288
C         75.95255       88.55754       -1.56285
O         76.92819       89.03799       -1.00549
C         75.05425       90.64585       -2.70617
C         75.47295       90.24570       -4.12908
O         73.97476       91.54794       -2.74188
H         73.14688       88.88456       -3.12732
H         74.48746       89.90837       -0.77664
H         75.91537       91.19906       -2.27106
H         73.25261       91.15096       -3.29409
H         75.69476       91.15801       -4.72197
H         76.39466       89.63943       -4.09611
H         74.67640       89.67478       -4.64863
N         75.97161       87.25565       -1.97866
C         77.08170       86.33841       -1.72233
C         76.56461       85.22614       -0.81777
O         75.36591       85.13612       -0.58995
C         77.65260       85.81532       -3.09278
C         78.14443       86.97043       -4.00372
C         78.76539       84.75413       -2.97812
C         79.32594       87.78008       -3.45559
H         75.15688       86.87180       -2.47813
H         77.88751       86.85018       -1.15556
H         76.81554       85.32380       -3.63731
H         77.30069       87.65429       -4.19843
H         78.44491       86.55088       -4.98906
H         78.38167       83.81863       -2.52838
H         79.12771       84.46739       -3.98872
H         79.62711       85.12731       -2.38656
H         79.59274       88.57457       -4.18390
H         79.07070       88.27127       -2.49641
H         80.22037       87.13978       -3.31319
N         77.43054       84.34855       -0.24579
C         77.01619       83.21645        0.56690
C         77.66472       83.29887        1.95546
O         77.64597       82.32467        2.69354
C         77.33867       81.96824       -0.27764
C         76.81069       80.65473        0.21047
O         76.27917       80.52981        1.30170
O         76.92185       79.59214       -0.60701
H         78.44150       84.45847       -0.41039
H         75.91415       83.20411        0.71626
H         78.43399       81.88065       -0.44313
H         76.85128       82.12202       -1.26670
N         78.14692       84.49067        2.42265
C         78.64884       84.69185        3.77651
C         80.03539       84.08317        3.93329
O         80.83634       84.21522        3.01818
C         78.68921       86.19362        4.15864
C         77.29764       86.79666        4.27460
C         76.72408       86.97879        5.54859
C         76.55476       87.18132        3.13983
C         75.43821       87.51268        5.68150
C         75.27148       87.71986        3.27933
C         74.71184       87.88127        4.54783
H         78.09325       85.31603        1.81742
H         77.93764       84.23243        4.49734
H         79.33122       86.79658        3.48096
H         79.16231       86.24653        5.16390
H         77.26495       86.69398        6.44264
H         76.95602       87.08659        2.14346
H         75.00354       87.63852        6.66496
H         74.71036       88.01370        2.40136
H         73.71682       88.29490        4.65233
N         80.42100       83.44766        5.08589
C         81.73546       82.85413        5.31072
C         82.16071       81.85633        4.25416
O         83.35138       81.72589        4.00833
C         81.55498       82.10886        6.64002
C         80.60380       83.01753        7.37486
C         79.59865       83.35506        6.27805
H         82.48328       83.67381        5.40141
H         81.00218       81.15484        6.46726
H         82.50419       81.87615        7.16810
H         80.15552       82.60184        8.30167
H         81.17088       83.94169        7.63577
H         78.84010       82.55617        6.12916
H         79.11122       84.31450        6.55423
N         81.23440       81.08350        3.62394
C         81.57024       80.05094        2.64883
C         82.32722       80.66543        1.48446
O         83.45017       80.24746        1.23698
C         80.28989       79.31092        2.19387
C         79.63207       78.56106        3.38052
C         78.29981       77.99990        2.99624
O         77.28740       78.62104        3.28036
O         78.20732       76.93706        2.17955
H         80.24349       81.24351        3.85578
H         82.22944       79.29329        3.12952
H         80.53195       78.57758        1.39347
H         79.57780       80.05776        1.77330
H         79.45271       79.26596        4.21574
H         80.28971       77.75373        3.76639
N         81.80074       81.69427        0.76130
C         82.52335       82.36536       -0.30426
H         83.53650       81.93903       -0.46855
H         81.95289       82.28684       -1.25204
H         82.64590       83.43854       -0.04465
H         80.85871       82.04381        0.99125
Ca        77.35306       77.59421        0.25309
O         74.12859       78.99672       -0.74265
H         74.14364       79.96316       -0.95784
H         74.03627       78.54743       -1.61809
O         76.35585       75.83315       -2.15730
H         75.67188       76.52471       -2.34152
H         77.21839       76.31554       -2.21978
O         75.00102       75.82101        2.84634
H         74.81390       76.77293        3.04411
H         74.14565       75.35601        3.02799
O         73.54647       75.89060        0.07025
H         72.94237       75.11345        0.17562
H         72.93918       76.65042       -0.11179

Ca 1.0



