%chk=apoCaM-CA-Ng.loop3.water5.frame1106.chk
%nprocshared=20
%mem=10GB
%nosave
#b3lyp/svp scf=(tight,noincore,xqc) Test 
#IOP(5/87=12) Density=Current Pop=(MK,readradii) iop(6/33=2) iop(6/42=6)

apoCaM-CA-Ng.loop3.water5.frame1106 

   0  1 
C         53.22253       15.12600       42.62453
C         53.92116       16.32641       43.18751
O         53.40073       17.42095       43.06678
H         52.25155       15.41418       42.16675
H         53.86025       14.65157       41.85099
H         53.02515       14.39690       43.43872
N         55.11349       16.18333       43.82771
C         55.84865       17.27971       44.45787
C         57.22689       17.48383       43.82923
O         58.04359       18.17163       44.42343
C         55.92295       17.04698       45.99008
C         56.64586       15.80766       46.45244
O         56.73406       15.55184       47.77111
O         57.15170       15.03144       45.66259
H         55.50981       15.23397       43.88375
H         55.30825       18.24477       44.34122
H         54.88444       16.99961       46.38350
H         56.41937       17.92165       46.46243
N         57.54059       16.95938       42.60599
C         58.83237       17.11997       41.93567
C         59.16664       18.57520       41.58911
O         60.33227       18.87706       41.37033
C         59.97710       16.43889       42.72096
C         59.65236       14.97956       43.07725
C         60.87732       14.27877       43.68336
C         60.58369       12.84752       44.16659
N         59.74468       12.83116       45.36697
H         56.83122       16.41035       42.09968
H         58.77377       16.58047       40.96440
H         60.19670       16.99496       43.65776
H         60.88931       16.46119       42.08403
H         59.34043       14.42150       42.16705
H         58.81033       14.98362       43.79205
H         61.28888       14.86607       44.53249
H         61.65454       14.22629       42.88956
H         61.55340       12.36542       44.41862
H         60.10717       12.25400       43.35479
H         58.79788       13.21553       45.16557
H         59.63154       11.84455       45.69301
H         60.20047       13.38319       46.13054
N         58.18843       19.51495       41.44711
C         58.43255       20.90924       41.06888
C         57.93860       21.85963       42.15385
O         57.82863       23.05223       41.90575
C         57.71000       21.18706       39.73753
C         58.23346       20.29206       38.65171
O         57.41499       19.40551       38.05735
O         59.40550       20.35315       38.31466
H         57.20568       19.23714       41.59247
H         59.51412       21.12113       40.91299
H         57.86725       22.24231       39.42308
H         56.61856       21.01910       39.86676
N         57.66790       21.39881       43.40448
C         57.13618       22.22291       44.47058
C         57.18817       21.42591       45.75951
O         58.29567       21.13583       46.18890
H         57.85310       20.41390       43.61579
H         56.11645       22.53178       44.17321
H         57.75254       23.13798       44.60893
N         56.09124       20.95476       46.41941
C         54.70359       21.18302       46.02486
C         53.79279       20.25371       46.82881
O         54.00005       20.15085       48.03279
C         54.30352       22.64944       46.29926
C         53.02328       22.99054       45.58092
N         51.89582       23.29757       46.25976
O         53.00762       22.98341       44.35787
H         56.28264       20.34973       47.23472
H         54.61546       20.95542       44.94207
H         55.06927       23.36242       45.93716
H         54.21835       22.80430       47.39737
H         51.88085       23.29803       47.28906
H         51.02827       23.51947       45.74847
N         52.76414       19.53353       46.29838
C         52.27600       19.66694       44.92873
C         51.09703       18.74768       44.64792
O         50.72025       17.96611       45.50482
H         52.27082       18.90422       46.94739
H         53.08556       19.47032       44.20726
H         51.91861       20.70261       44.78458
N         50.43944       18.82150       43.44870
C         49.25171       18.01299       43.16702
C         49.44167       17.16532       41.91724
O         50.35758       17.41154       41.14893
C         48.04646       18.96634       43.00205
C         46.71354       18.26101       43.01763
C         45.87474       18.26977       41.89148
C         46.28943       17.60368       44.18462
C         44.63588       17.62079       41.93137
C         45.04961       16.96352       44.22517
C         44.21817       16.96839       43.09698
O         43.01789       16.35526       43.12404
H         50.75710       19.50194       42.74438
H         49.06347       17.32727       44.01760
H         48.18474       19.55228       42.06555
H         48.03027       19.69269       43.84398
H         46.17805       18.77465       40.98345
H         46.91543       17.59694       45.06828
H         43.99784       17.62859       41.05679
H         44.73636       16.46797       45.13537
H         42.69113       15.90154       43.91433
N         48.58923       16.12689       41.66274
C         48.66205       15.33217       40.43702
C         48.31837       16.17450       39.21953
O         47.57200       17.13646       39.34052
C         47.73284       14.06810       40.46758
C         48.30835       12.98897       41.41585
C         46.25813       14.40543       40.80080
C         47.56224       11.65189       41.33910
H         47.88870       15.89875       42.37647
H         49.70971       14.97879       40.31178
H         47.75478       13.62604       39.44567
H         48.31889       13.34992       42.46618
H         49.35706       12.78387       41.10713
H         46.13598       14.75302       41.84720
H         45.86226       15.18442       40.11891
H         45.60952       13.51463       40.68001
H         48.08345       10.89899       41.96689
H         46.52347       11.74275       41.71532
H         47.54226       11.27908       40.29191
N         48.77629       15.80051       37.98855
C         48.35052       16.43232       36.74442
C         49.51765       16.98687       35.93835
O         50.66762       16.84118       36.32838
C         47.60461       15.37317       35.91446
O         46.51908       14.87822       36.64906
H         49.40478       14.98414       37.92307
H         47.65409       17.27490       36.94936
H         48.31057       14.54228       35.67932
H         47.22661       15.80903       34.96575
H         46.16089       14.11248       36.12941
N         49.25592       17.62581       34.75977
C         50.24352       18.13535       33.81540
C         51.11996       17.02306       33.25885
O         52.30978       17.23140       33.06253
C         51.04640       19.30219       34.40794
H         48.26980       17.73816       34.47968
H         49.67601       18.53955       32.94731
H         51.72129       19.73428       33.63787
H         50.35414       20.10151       34.74721
H         51.66102       18.96940       35.26968
N         50.57975       15.79847       32.98399
C         51.31072       14.67527       32.40764
C         52.62235       14.42131       33.13644
O         53.66871       14.37381       32.50120
C         51.50886       14.90647       30.90248
H         49.58930       15.63268       33.21832
H         50.67565       13.76730       32.51017
H         50.52146       15.05040       30.41311
H         52.13059       15.80748       30.71591
H         51.99875       14.02445       30.43720
N         52.64553       14.29967       34.49387
C         53.89596       14.14339       35.23239
C         54.52826       12.77236       35.00161
O         55.68548       12.59985       35.35737
C         53.64250       14.40475       36.73830
C         54.89887       14.43653       37.62804
C         55.86624       15.50611       37.20784
O         57.11960       15.17479       36.84589
O         55.52466       16.67823       37.20089
H         51.75823       14.40070       35.01105
H         54.59028       14.93172       34.86225
H         52.94851       13.62869       37.12798
H         53.13754       15.39118       36.83839
H         55.40158       13.44846       37.62239
H         54.58806       14.63826       38.67523
N         53.83103       11.74359       34.43448
C         54.38787       10.42047       34.23115
H         55.44542       10.34567       34.56097
H         53.79249        9.68183       34.80840
H         54.33693       10.15989       33.15392
H         52.84932       11.87531       34.15387
Ca        58.24890       18.01593       36.48918
O         60.01673       15.43162       35.85865
H         60.87591       15.43780       35.36704
H         59.69125       14.49998       35.78052
O         60.20181       17.17355       38.70163
H         60.77750       16.46921       38.31241
H         60.78901       17.96819       38.76035
O         60.48052       18.29688       34.46931
H         59.96924       19.10307       34.20636
H         60.32570       17.65336       33.73293
O         56.34543       20.10403       35.20651
H         56.99588       20.08256       34.46028
H         56.67168       20.82824       35.79774
O         57.07377       17.10766       33.87687
H         56.20445       17.15159       33.40531
H         57.68636       16.66898       33.23463

Ca 1.0



