%chk=apoCaM-CA-Ng.loop3.water3.frame778.chk
%nprocshared=20
%mem=10GB
%nosave
#b3lyp/svp scf=(tight,noincore,xqc) Test 
#IOP(5/87=12) Density=Current Pop=(MK,readradii) iop(6/33=2) iop(6/42=6)

apoCaM-CA-Ng.loop3.water3.frame778 

   0  1 
C         95.07096       87.11518      -18.93394
C         94.96255       85.87314      -19.77054
O         95.94636       85.49051      -20.38731
H         95.35312       87.97751      -19.57131
H         94.11357       87.34633      -18.42078
H         95.85127       86.96494      -18.15695
N         93.80228       85.15929      -19.80318
C         93.69184       83.88048      -20.50405
C         93.67583       84.09305      -22.02622
O         93.48999       85.22544      -22.45285
C         92.39782       83.15693      -20.03140
C         92.52265       81.66065      -19.90458
O         92.22631       81.07412      -18.73064
O         92.87085       80.96380      -20.83690
H         93.01114       85.49913      -19.23434
H         94.55933       83.27991      -20.17979
H         91.54161       83.45583      -20.67312
H         92.14513       83.48260      -18.99824
N         93.79769       83.05032      -22.90313
C         93.55387       83.17089      -24.34620
C         92.34053       82.34345      -24.78823
O         91.93178       82.48169      -25.93183
C         94.78324       82.74839      -25.17244
C         95.97537       83.70025      -25.01800
C         97.10881       83.27370      -25.96415
C         98.26996       84.27437      -25.95340
N         99.31476       83.86524      -26.89328
H         94.03038       82.12328      -22.52928
H         93.30203       84.22279      -24.60526
H         94.49651       82.76393      -26.24772
H         95.07896       81.70981      -24.91205
H         96.33467       83.71198      -23.96612
H         95.64411       84.72509      -25.29621
H         96.71329       83.21926      -27.00286
H         97.47688       82.26556      -25.67198
H         98.69744       84.34563      -24.92933
H         97.89113       85.27840      -26.24960
H         98.92543       83.80738      -27.86299
H        100.08370       84.57344      -26.88338
H         99.70474       82.93523      -26.61629
N         91.70511       81.48565      -23.94005
C         90.48764       80.74702      -24.24701
C         89.38428       81.22643      -23.30385
O         88.34776       81.65249      -23.79663
C         90.75892       79.22072      -24.27205
C         91.43831       78.61729      -23.07061
O         90.83151       78.58191      -21.87727
O         92.52997       78.08550      -23.19398
H         92.08099       81.35154      -23.00458
H         90.13661       80.97551      -25.27890
H         91.42524       79.03463      -25.14491
H         89.80792       78.67937      -24.46412
N         89.58285       81.31594      -21.95542
C         88.66942       81.98068      -21.03527
C         88.31911       81.15838      -19.80888
O         87.70422       81.70726      -18.91003
H         90.47658       81.00380      -21.56248
H         87.73569       82.31593      -21.53587
H         89.19242       82.88877      -20.66741
N         88.65882       79.84210      -19.70578
C         88.36810       79.00697      -18.53963
C         89.62096       78.26218      -18.09039
O         90.63823       78.36775      -18.74926
C         87.27110       77.98210      -18.90640
C         87.70090       76.99852      -19.97792
N         87.83978       75.68420      -19.68882
O         87.92806       77.38898      -21.11343
H         89.11133       79.39706      -20.50419
H         87.99160       79.63026      -17.70063
H         86.35531       78.51373      -19.24324
H         86.99908       77.42444      -17.98591
H         87.66368       75.32940      -18.73780
H         88.14143       75.01918      -20.41625
N         89.58855       77.41080      -17.01934
C         90.68010       76.48555      -16.73894
C         91.99327       77.14618      -16.39164
O         92.02156       78.33140      -16.08624
H         88.73004       77.33352      -16.45693
H         90.82521       75.86575      -17.64742
H         90.40170       75.79694      -15.91113
N         93.14494       76.40990      -16.44237
C         94.45642       76.95648      -16.10727
C         94.76494       78.18364      -17.00687
O         94.97165       77.72094      -18.31256
C         95.58782       75.90269      -16.29902
C         95.42272       74.59988      -15.55824
C         95.35326       74.56412      -14.15820
C         95.38546       73.39057      -16.27924
C         95.25421       73.33757      -13.49052
C         95.28854       72.16918      -15.61127
C         95.22635       72.13602      -14.21625
O         95.14745       70.94669      -13.58654
H         93.07654       75.42253      -16.73523
H         94.42130       77.27719      -15.04316
H         96.55360       76.35275      -15.98467
H         95.67632       75.66397      -17.38098
H         95.38863       75.48138      -13.58512
H         95.44630       73.38747      -17.36122
H         95.20886       73.32123      -12.40955
H         95.27211       71.24744      -16.18032
H         95.11760       70.87546      -12.62222
N         95.96035       78.92228      -16.55138
C         96.04141       80.33821      -16.99350
C         96.26154       80.41300      -18.50397
O         95.40172       79.99121      -19.25912
C         94.82480       81.20657      -16.52824
C         94.95499       82.69234      -16.97125
C         94.57929       81.12910      -15.00916
C         96.13991       83.46036      -16.37245
H         96.02706       78.89619      -15.50804
H         96.94491       80.75698      -16.50206
H         93.91490       80.80359      -17.01128
H         94.02248       83.23372      -16.69948
H         95.04550       82.73425      -18.07158
H         93.71369       81.76832      -14.73041
H         94.32519       80.09619      -14.69705
H         95.46981       81.46131      -14.43699
H         96.06729       83.51345      -15.26724
H         97.10740       83.00124      -16.65616
H         96.13481       84.50020      -16.76234
N         97.39227       80.96874      -19.02132
C         97.71118       80.92937      -20.44909
C         99.11976       80.40721      -20.72113
O         99.48167       80.31818      -21.88707
C         97.54591       82.32465      -21.06354
O         98.42572       83.24802      -20.48110
H         98.04066       81.44637      -18.37896
H         97.00554       80.25668      -20.98063
H         96.49667       82.66246      -20.96054
H         97.73822       82.28643      -22.15744
H         97.97404       83.59957      -19.67013
N         99.98975       80.08530      -19.71763
C        101.38031       79.72215      -19.96924
C        101.50660       78.40083      -20.70740
O        100.56368       77.62187      -20.67641
C        102.11731       79.60343      -18.63027
H         99.68882       80.15769      -18.73742
H        101.83539       80.54245      -20.56101
H        102.08915       80.57634      -18.09462
H        101.63833       78.82906      -17.99337
H        103.16549       79.30436      -18.77513
N        102.64708       78.02375      -21.36282
C        103.78073       78.90137      -21.66814
C        105.01946       78.07017      -21.98321
O        104.90414       77.16810      -22.80232
C        103.43874       79.74717      -22.90164
H        102.63623       77.08905      -21.80144
H        103.98300       79.60016      -20.84237
H        104.28815       80.42074      -23.14700
H        103.23219       79.09735      -23.77917
H        102.54340       80.37529      -22.72076
N        106.26024       78.29809      -21.45401
C        106.64482       79.39616      -20.56868
C        105.99684       79.28194      -19.20623
O        105.37564       80.24304      -18.77504
C        108.18606       79.43297      -20.43360
C        108.68605       80.63480      -19.61484
C        110.18702       80.69664      -19.61429
O        110.79694       80.83355      -20.66341
O        110.86769       80.61902      -18.45518
H        107.01380       77.67018      -21.77893
H        106.35170       80.35821      -21.04747
H        108.60913       79.51272      -21.45996
H        108.56005       78.48989      -19.97680
H        108.32157       80.55297      -18.56813
H        108.29686       81.57947      -20.05227
N        106.11940       78.14532      -18.46547
C        105.52155       77.98017      -17.15495
H        104.80861       77.12961      -17.18126
H        106.31625       77.76220      -16.41175
H        104.96994       78.88453      -16.82106
H        106.65116       77.34999      -18.84922
Ca        93.19253       78.27921      -19.60628
O         91.70814       75.63352      -20.15014
H         92.01567       75.83762      -21.06862
H         92.49854       75.23651      -19.70449
O         95.32108       76.76804      -21.35611
H         96.20433       76.80461      -20.91006
H         94.79474       76.13001      -20.81172
O         95.12179       79.63542      -22.80188
H         94.41146       79.84700      -23.45733
H         95.91240       80.13195      -23.13048

Ca 1.0



