%chk=apoCaM-CA-Ng.loop4.water3.frame73.chk
%nprocshared=20
%mem=10GB
%nosave
#b3lyp/svp scf=(tight,noincore,xqc) Test 
#IOP(5/87=12) Density=Current Pop=(MK,readradii) iop(6/33=2) iop(6/42=6)

apoCaM-CA-Ng.loop4.water3.frame73 

   -3  1 
C         57.13943       74.31132       63.14829
C         57.79282       75.29311       62.22347
O         58.90262       75.70770       62.51728
H         56.14773       73.99102       62.76826
H         57.78868       73.41462       63.24428
H         57.01049       74.77220       64.14977
N         57.17900       75.68331       61.06638
C         57.77082       76.58804       60.08477
C         59.07966       76.01186       59.57483
O         60.13049       76.57684       59.81234
C         57.77684       78.06995       60.55590
C         58.53310       78.41459       61.80712
O         59.74551       78.31306       61.85066
O         57.87267       78.90280       62.87474
H         56.25830       75.27900       60.83815
H         57.10015       76.62214       59.19620
H         56.71489       78.35416       60.72441
H         58.16095       78.70860       59.73019
N         59.03799       74.84428       58.86444
C         60.14872       74.08377       58.28283
C         60.82869       74.82344       57.12812
O         60.68490       74.36603       56.00200
C         61.13144       73.52594       59.34980
C         62.17848       72.54899       58.73741
C         60.36868       72.83442       60.49690
C         61.59772       71.28127       58.08911
H         58.10289       74.43047       58.72114
H         59.66230       73.19448       57.82627
H         61.68688       74.37376       59.79649
H         62.87239       72.22419       59.54166
H         62.78267       73.08282       57.97404
H         61.07932       72.42718       61.24583
H         59.71423       73.55830       61.02043
H         59.72881       72.00899       60.12337
H         62.42618       70.64793       57.71036
H         61.02277       70.67795       58.82122
H         60.94934       71.52134       57.22313
N         61.55510       75.96831       57.29812
C         62.08127       76.72670       56.17124
C         63.30792       76.06052       55.54701
O         63.23190       75.77084       54.36124
C         62.30004       78.22347       56.52592
C         61.00853       78.89913       56.90689
O         60.08139       78.94707       56.11427
O         60.87604       79.47730       58.11560
H         61.69238       76.35901       58.23311
H         61.29280       76.76726       55.38337
H         62.70868       78.75171       55.63739
H         63.00364       78.37603       57.35698
N         64.48504       75.79892       56.19698
C         64.72279       76.01226       57.61854
C         66.19700       75.92735       58.01010
O         67.02125       75.66817       57.14506
H         65.24738       75.40978       55.62181
H         64.11760       75.27353       58.18066
H         64.41985       77.01533       57.87305
N         66.65565       76.13700       59.28735
C         65.86521       76.46803       60.47547
C         64.78411       75.42607       60.69410
O         63.61475       75.77151       60.62998
C         65.33064       77.92318       60.45138
C         66.42045       78.96375       60.40406
O         66.11879       80.14608       60.42197
O         67.72248       78.61770       60.36343
H         67.67086       76.02751       59.43994
H         66.52436       76.44605       61.37199
H         64.75791       78.09523       61.38700
H         64.63953       78.10468       59.61590
N         65.06913       74.11359       60.93888
C         66.40757       73.57856       61.12656
C         66.76414       72.55740       60.08557
O         65.96915       72.26267       59.20165
H         64.28421       73.45175       61.03220
H         66.45982       73.10419       62.12963
H         67.18625       74.36028       61.09549
N         67.99333       71.97249       60.13922
C         68.44141       70.96949       59.18264
C         67.63079       69.67551       59.31224
O         67.76929       68.80827       58.46612
C         69.94330       70.67451       59.44622
C         70.72011       69.81872       58.42582
C         71.01250       70.54590       57.13255
N         70.04384       70.81400       56.22761
O         72.16263       70.88401       56.89214
H         68.63887       72.27954       60.88550
H         68.30945       71.41880       58.18039
H         70.00513       70.16838       60.43438
H         70.49520       71.63666       59.53732
H         70.24568       68.83554       58.23492
H         71.70231       69.60829       58.90630
H         69.07490       70.50357       56.37186
H         70.27434       71.31399       55.35579
N         66.82922       69.45615       60.40182
C         66.15067       68.18980       60.67381
C         66.81628       67.47003       61.84031
O         66.46610       66.31951       62.08534
C         64.63559       68.40677       60.94111
C         63.93890       68.98618       59.70599
C         64.36893       69.30837       62.16113
H         66.76376       70.17748       61.12642
H         66.26201       67.50987       59.80169
H         64.17587       67.41466       61.14933
H         64.35236       69.98418       59.44945
H         64.07311       68.30656       58.83836
H         62.85000       69.09184       59.89867
H         64.84162       68.89325       63.07615
H         64.75201       70.33643       61.99877
H         63.27659       69.38048       62.34379
N         67.79040       68.06146       62.58897
C         68.54428       67.39167       63.62991
C         68.24474       67.96755       65.00797
O         67.94932       67.17955       65.89416
C         70.05787       67.35649       63.26424
C         70.79477       68.65460       62.97721
N         72.09725       68.61288       62.61458
O         70.24275       69.73772       63.04677
H         68.04589       69.03849       62.40809
H         68.25707       66.31550       63.68602
H         70.14901       66.74668       62.33859
H         70.60046       66.82140       64.07385
H         72.59547       67.71505       62.53637
H         72.60920       69.48450       62.40902
N         68.32027       69.30573       65.28313
C         68.22609       69.83570       66.63904
C         67.17247       70.92547       66.77740
O         67.04599       71.76640       65.90012
C         69.58641       70.44357       67.03464
C         70.73737       69.48531       66.83506
C         70.78850       68.25432       67.51200
C         71.77787       69.82583       65.95517
C         71.85896       67.37811       67.30094
C         72.84637       68.95196       65.74959
C         72.88952       67.72264       66.41930
O         73.91365       66.86836       66.22296
H         68.52203       69.97401       64.53434
H         68.01353       69.02658       67.37111
H         69.55778       70.75025       68.10238
H         69.75770       71.35655       66.42177
H         70.00096       67.96908       68.19770
H         71.76209       70.76810       65.42167
H         71.88733       66.42976       67.82247
H         73.63704       69.23145       65.06498
H         74.64240       67.07174       65.61891
N         66.53823       71.06627       67.97813
C         65.71834       72.19761       68.41708
C         64.32324       72.28957       67.82082
O         63.51364       72.98275       68.42428
C         66.44879       73.55654       68.29433
C         67.82753       73.55372       68.96887
C         68.46426       74.91170       68.89210
O         67.87284       75.96892       69.48096
O         69.52583       75.06247       68.30840
H         66.74792       70.36502       68.70539
H         65.53959       72.01896       69.50299
H         65.81749       74.33830       68.77213
H         66.56951       73.83115       67.22407
H         68.48362       72.81655       68.46290
H         67.72918       73.26679       70.03685
N         63.93852       71.66273       66.67120
C         62.56205       71.75944       66.18752
C         61.62593       70.85089       66.97408
O         60.42825       70.91440       66.73129
C         62.46394       71.41795       64.68541
C         63.28728       72.33146       63.75766
C         62.85600       73.77217       63.79192
O         63.01164       74.44823       64.79515
O         62.32482       74.33640       62.69356
H         64.62356       71.13174       66.11923
H         62.20059       72.79990       66.32094
H         61.40097       71.48538       64.36166
H         62.79939       70.36913       64.53909
H         63.13900       71.95890       62.72230
H         64.37076       72.26629       63.99113
N         62.08686       69.97162       67.91296
C         61.22456       69.07865       68.65929
H         60.15423       69.19325       68.38861
H         61.52532       68.02951       68.45597
H         61.33717       69.28173       69.74437
H         63.09383       69.90227       68.11376
Ca        61.76699       76.51863       62.71554
O         62.32641       79.19249       60.89370
H         62.73893       79.90464       60.34383
H         62.13208       78.46360       60.25220
O         64.56628       77.52952       63.97075
H         65.42550       77.04898       63.86757
H         63.96598       76.87023       64.39852
O         61.32007       78.45596       65.02345
H         60.38465       78.15673       64.89686
H         61.77234       77.68141       65.44309

Ca 1.0



