%chk=apoCaM-CA-Ng.loop2.water4.frame1064.chk
%nprocshared=20
%mem=10GB
%nosave
#b3lyp/svp scf=(tight,noincore,xqc) Test 
#IOP(5/87=12) Density=Current Pop=(MK,readradii) iop(6/33=2) iop(6/42=6)

apoCaM-CA-Ng.loop2.water4.frame1064 

   -2  1 
C         11.73175       62.11262       56.91112
C         11.46019       63.59302       56.98611
O         11.13207       64.17334       55.96190
H         12.77479       61.88806       57.21503
H         11.02276       61.57375       57.57611
H         11.58304       61.73647       55.87627
N         11.53004       64.29791       58.15372
C         11.92282       63.73081       59.43971
C         13.08867       64.53323       60.01376
O         13.97790       64.86441       59.24237
C         10.66218       63.59240       60.32499
C          9.93591       64.89205       60.57100
O          8.81136       65.05495       60.12536
O         10.49699       65.86728       61.30632
H         11.27021       65.29610       58.13132
H         12.31238       62.70271       59.30282
H         10.90012       63.10288       61.29127
H          9.96842       62.91031       59.78428
N         13.18147       64.85899       61.34183
C         14.26700       65.64009       61.93535
C         14.28031       67.10011       61.48651
O         15.18123       67.81477       61.90438
C         15.63084       64.96312       61.70844
H         12.46534       64.51973       61.99652
H         14.11198       65.65909       63.03773
H         16.42281       65.50490       62.26892
H         15.60275       63.91793       62.08305
H         15.92737       64.95547       60.64126
N         13.30355       67.63297       60.69021
C         13.28715       69.02776       60.25711
C         12.08382       69.81862       60.82690
O         11.35844       69.12337       61.79359
C         13.28242       69.10536       58.71091
C         12.34827       68.16196       57.94605
O         12.83058       67.48059       57.05541
O         11.01899       68.03513       58.18194
H         12.51966       67.04454       60.38590
H         14.19357       69.55889       60.62237
H         14.31351       68.87103       58.36519
H         13.08439       70.15288       58.40630
N         12.41449       71.18603       61.25918
C         11.21368       71.95992       61.61623
C         10.30109       72.34353       60.45991
O          9.22927       72.85777       60.74711
H         12.98723       71.69401       60.54741
H         11.52435       72.89322       62.13216
H         10.62105       71.38376       62.35816
N         10.64012       72.18551       59.14547
C          9.73591       72.57578       58.06498
C          8.64299       71.53811       57.86867
O          8.68486       70.47844       58.47714
C         10.51110       72.75649       56.73752
C         11.50230       73.89063       56.81977
N         12.82135       73.68034       56.60591
O         11.10357       75.01987       57.06478
H         11.57361       71.83750       58.89591
H          9.26586       73.55332       58.31594
H          9.80952       73.00858       55.91453
H         11.01846       71.80348       56.46867
H         13.17997       72.74001       56.38713
H         13.48722       74.46615       56.65202
N          7.63652       71.78711       56.98686
C          6.62357       70.81870       56.60840
C          5.22477       71.30203       56.93092
O          5.08668       72.27055       57.66408
H          7.60557       72.70219       56.51200
H          6.77783       69.82652       57.08342
H          6.73393       70.68878       55.52457
N          4.10865       70.67955       56.44056
C          4.13766       69.58110       55.46978
C          4.71770       70.07700       54.14555
O          4.77985       71.28339       53.93971
C          2.70165       69.00967       55.29281
C          2.59722       67.85298       54.29162
O          2.24866       68.56021       56.54506
H          3.19176       71.03238       56.75932
H          4.79125       68.77878       55.87952
H          2.04737       69.83965       54.93312
H          1.25604       68.56550       56.51554
H          2.85280       68.18765       53.26615
H          3.25784       67.01334       54.59412
H          1.54943       67.48591       54.25568
N          5.21919       69.20106       53.22620
C          5.86269       69.62248       51.98599
C          5.05853       69.09253       50.79856
O          4.96081       67.87715       50.68632
C          7.33232       69.10305       51.93139
C          8.18191       69.55693       53.14939
C          8.02411       69.50428       50.61185
C          8.37641       71.07301       53.28577
H          5.17463       68.18951       53.42338
H          5.94619       70.71237       51.95945
H          7.30858       67.99056       51.96434
H          9.18809       69.09021       53.07404
H          7.71735       69.16924       54.07956
H          9.06375       69.11401       50.58918
H          7.49005       69.07447       49.73929
H          8.04856       70.60640       50.48540
H          7.41227       71.60141       53.41698
H          9.00230       71.28248       54.17818
H          8.89449       71.48959       52.40220
N          4.49084       69.87724       49.82812
C          4.45574       71.34172       49.80735
C          5.46677       71.90211       48.82256
O          6.07581       71.14981       48.07758
C          3.01588       71.85009       49.56090
C          2.41084       71.50315       48.22044
O          1.14922       71.88983       47.95351
O          3.03823       70.89133       47.37021
H          4.06640       69.38442       49.02860
H          4.72982       71.75495       50.78581
H          2.99694       72.95658       49.65888
H          2.36220       71.42906       50.35573
N          5.75198       73.23750       48.84323
C          6.78204       73.84685       48.00586
C          7.00793       75.29674       48.44863
O          6.02985       76.02848       48.49412
C          6.38110       73.83849       46.51029
C          7.56088       74.27609       45.67144
C          7.58285       75.53667       45.05243
C          8.67477       73.42579       45.53734
C          8.71086       75.94616       44.33191
C          9.79605       73.83686       44.81246
C          9.81655       75.09854       44.21457
H          5.26411       73.82104       49.53863
H          7.70441       73.25075       48.11745
H          5.51009       74.51673       46.37294
H          6.06908       72.83203       46.16085
H          6.74179       76.21123       45.14869
H          8.67917       72.44977       46.00739
H          8.73266       76.92512       43.87144
H         10.65238       73.18045       44.72370
H         10.69065       75.41960       43.66282
N          8.24476       75.82375       48.73639
C          9.52639       75.15745       48.57183
C          9.87419       74.27012       49.76997
O          9.09146       73.37726       50.06141
C         10.46793       76.33762       48.28529
C          9.92137       77.39181       49.22633
C          8.42044       77.23860       49.01256
H          9.54763       74.51915       47.67428
H         11.55570       76.13176       48.33490
H         10.26351       76.69940       47.24981
H         10.16123       77.07327       50.25826
H         10.29901       78.42478       49.07252
H          7.85270       77.58689       49.90218
H          8.09814       77.80667       48.11115
N         11.04817       74.39078       50.46757
C         11.46721       73.43892       51.49398
C         12.83656       72.83375       51.14651
O         13.75493       72.96250       51.94265
C         11.42231       74.08836       52.90962
C         12.32822       75.31398       53.17596
C         11.88331       76.55515       52.46366
O         12.63560       77.12683       51.69018
O         10.66354       77.06898       52.71201
H         11.70712       75.14394       50.24272
H         10.76004       72.58600       51.54575
H         11.71440       73.29724       53.63505
H         10.37240       74.36765       53.14763
H         13.38568       75.09181       52.93270
H         12.28549       75.54354       54.26146
N         13.09576       72.13608       49.99937
C         12.15012       71.81994       48.95022
H         11.12836       72.14942       49.17047
H         12.48698       72.28580       47.99984
H         12.11181       70.71951       48.81337
H         14.05616       71.78591       49.85634
Ca        10.03462       68.47152       60.14372
O          8.15372       70.24048       61.96808
H          7.58220       70.98956       61.66444
H          8.19191       70.34002       62.95209
O          6.08641       68.89790       60.23647
H          5.66677       69.11633       61.10640
H          5.34156       68.93103       59.58521
O          7.42230       67.13552       58.10255
H          7.61031       66.88793       57.16265
H          6.73377       66.48767       58.39751
O          7.84964       67.22080       62.60263
H          7.83133       67.40081       63.57611
H          7.66689       66.25082       62.52613

Ca 1.0



