%chk=apoCaM-CA-Ng.loop1.water2.frame65.chk
%nprocshared=20
%mem=10GB
%nosave
#b3lyp/svp scf=(tight,noincore,xqc) Test 
#IOP(5/87=12) Density=Current Pop=(MK,readradii) iop(6/33=2) iop(6/42=6)

apoCaM-CA-Ng.loop1.water2.frame65 

   0  1 
C         58.66968       61.02032       87.29449
C         58.96710       61.32433       88.73600
O         58.88920       62.47973       89.12819
H         57.63397       61.33199       87.04885
H         59.38341       61.56985       86.64551
H         58.77123       59.93509       87.07702
N         59.32086       60.32264       89.58800
C         59.62992       60.51846       91.00453
C         60.92153       61.30867       91.27885
O         61.29101       61.38037       92.44147
C         59.64891       59.15383       91.74746
C         60.76903       58.22525       91.35509
O         60.85512       57.79114       90.21819
O         61.66177       57.82892       92.28207
H         59.31122       59.36323       89.21357
H         58.78858       61.07734       91.46702
H         58.67750       58.63662       91.58477
H         59.72968       59.35044       92.83961
N         61.63917       61.94888       90.30162
C         62.88130       62.68769       90.53724
C         62.67828       64.19027       90.30219
O         62.26112       64.52424       89.20147
C         63.94916       62.17727       89.53364
C         65.28558       62.93548       89.64524
C         66.23183       62.61336       88.48647
C         67.49882       63.47807       88.57799
N         68.37902       63.24447       87.43486
H         61.30880       61.92892       89.33073
H         63.24230       62.49466       91.55093
H         63.54916       62.32946       88.50596
H         64.12413       61.08794       89.67161
H         65.76870       62.69642       90.61447
H         65.09721       64.02826       89.59443
H         65.71607       62.84746       87.52855
H         66.49777       61.53467       88.49699
H         68.04122       63.24806       89.52149
H         67.21389       64.55515       88.59444
H         68.67426       62.24213       87.40617
H         67.88550       63.49464       86.54677
H         69.22701       63.84911       87.52852
N         63.00462       65.18971       91.19380
C         63.45701       65.07342       92.58519
C         64.74086       64.26482       92.72568
O         64.69303       63.15412       93.23481
C         62.31727       64.55429       93.47765
C         61.07069       65.39641       93.39995
O         61.01328       66.41958       92.73545
O         59.96520       64.92756       93.98673
H         62.89263       66.15815       90.85417
H         63.66501       66.08887       92.98979
H         62.64427       64.50825       94.53913
H         62.04747       63.53562       93.16456
N         65.95726       64.74023       92.34483
C         66.17792       66.09300       91.85729
C         67.64101       66.36193       91.54041
O         68.45223       65.44936       91.61178
H         66.76022       64.10599       92.47380
H         65.85592       66.79055       92.65128
H         65.57573       66.27055       90.94149
N         68.09006       67.58832       91.15250
C         67.27028       68.79033       91.05257
C         66.83046       69.25072       92.43817
O         67.68157       69.50246       93.28062
C         68.09525       69.90396       90.36043
C         67.33273       71.17427       90.08072
O         67.90181       72.10142       89.52742
O         66.03337       71.30383       90.41171
H         69.09011       67.66022       90.90254
H         66.39663       68.57784       90.39696
H         68.45522       69.51620       89.38176
H         68.98468       70.14841       90.98222
N         65.50958       69.42927       92.72383
C         65.03006       69.96927       93.98824
C         65.19664       69.03621       95.17131
O         65.69203       67.92764       95.02805
H         64.81237       69.24938       91.98547
H         63.94127       70.17248       93.89428
H         65.53918       70.93727       94.18919
N         64.75879       69.45101       96.39716
C         64.79953       68.63428       97.61696
C         63.92491       67.38166       97.46290
O         63.23318       67.26257       96.45952
C         64.41662       69.54319       98.82618
C         64.48782       68.89182      100.20831
O         63.13067       70.07876       98.63915
H         64.38192       70.41042       96.45682
H         65.85028       68.29892       97.76601
H         65.17696       70.36355       98.82400
H         63.15424       71.01513       98.97124
H         63.68401       68.13937      100.33562
H         65.48548       68.43297      100.37452
H         64.32543       69.66598      100.98811
N         63.95417       66.37427       98.38965
C         63.27990       65.08931       98.20994
C         62.21357       64.88110       99.27326
O         62.53909       64.95103      100.45146
C         64.31122       63.92475       98.32140
C         65.61714       64.15213       97.52113
C         63.64646       62.58459       97.94553
C         65.42909       64.30441       96.02024
H         64.54384       66.47428       99.22661
H         62.80866       65.04007       97.20379
H         64.64285       63.85175       99.38210
H         66.29799       63.29181       97.70410
H         66.13183       65.05979       97.90255
H         62.78057       62.38208       98.60575
H         63.27121       62.60037       96.90057
H         64.36355       61.74582       98.06124
H         64.79549       65.18097       95.78201
H         66.41887       64.44903       95.53815
H         64.97118       63.38591       95.61462
N         60.93339       64.54864       98.92560
C         59.89812       64.22904       99.91211
C         59.36164       62.80158       99.79474
O         58.72811       62.35854      100.74270
C         58.72860       65.24039       99.83130
C         57.99728       65.20036       98.48199
O         59.20688       66.54213      100.04444
H         60.70026       64.50333       97.92355
H         60.32991       64.30381      100.93441
H         57.97118       64.99120      100.61229
H         59.36104       66.63328      101.02099
H         58.67619       65.46682       97.64780
H         57.57962       64.19264       98.28805
H         57.15544       65.92337       98.48716
N         59.50095       62.05026       98.65849
C         58.92647       60.71440       98.46579
C         57.39823       60.74212       98.56023
O         56.82182       61.77432       98.87551
C         59.59492       59.66591       99.40321
C         61.11857       59.64106       99.21593
O         59.08702       58.37342       99.18257
H         60.00287       62.44360       97.85198
H         59.15881       60.40819       97.42126
H         59.38592       59.92522      100.46124
H         59.33339       58.10257       98.25816
H         61.56860       58.87043       99.87582
H         61.37627       59.39918       98.16111
H         61.55818       60.62245       99.47786
N         56.66826       59.64364       98.21730
C         55.22357       59.68625       98.04318
C         54.94078       60.33612       96.70422
O         54.28784       61.37021       96.67714
C         54.55795       58.29786       98.27666
C         55.06866       57.11855       97.41997
C         54.37426       55.77851       97.72324
C         54.47346       55.28472       99.18053
N         55.85663       55.14936       99.64120
H         57.17530       58.83396       97.84768
H         54.77485       60.33641       98.83051
H         53.46031       58.40253       98.12970
H         54.73453       58.04535       99.34310
H         56.15591       56.97272       97.56841
H         54.88089       57.32262       96.34940
H         54.82888       55.00936       97.05999
H         53.29833       55.85907       97.45770
H         53.97424       54.29163       99.23574
H         53.92033       55.96783       99.85967
H         56.39867       54.53060       98.99602
H         56.31350       56.08692       99.70761
H         55.85354       54.72288      100.59615
N         55.47042       59.82417       95.55830
C         55.35653       60.46222       94.25736
C         54.51299       59.59592       93.34940
O         54.98811       59.12983       92.32144
C         56.76922       60.67844       93.68022
C         57.65664       61.58274       94.53572
C         57.14879       62.99031       94.60267
O         56.95534       63.68082       93.46527
O         57.03457       63.55214       95.67949
H         56.02965       58.96181       95.60416
H         54.84588       61.44786       94.32630
H         56.69429       61.11599       92.66085
H         57.27542       59.69159       93.59388
H         58.66033       61.61691       94.05832
H         57.78603       61.16495       95.55631
N         53.21476       59.35821       93.67897
C         52.31838       58.56528       92.86513
H         51.45850       59.19407       92.55380
H         52.81153       58.17167       91.95146
H         51.94568       57.70776       93.46165
H         52.83482       59.76802       94.54585
Ca        57.91913       65.68528       93.48078
O         59.09936       65.97384       90.30844
H         58.32772       65.81889       89.70764
H         59.52662       65.08518       90.39937
O         58.33808       67.57352       95.73285
H         58.95185       67.62097       96.50796
H         57.44952       67.38437       96.12719

Ca 1.0



