%chk=apoCaM-CA-Ng.loop1.water1.frame911.chk
%nprocshared=20
%mem=10GB
%nosave
#b3lyp/svp scf=(tight,noincore,xqc) Test 
#IOP(5/87=12) Density=Current Pop=(MK,readradii) iop(6/33=2) iop(6/42=6)

apoCaM-CA-Ng.loop1.water1.frame911 

   0  1 
C         96.94181       27.70244       11.16020
C         96.97723       28.72156       12.26139
O         98.05742       29.13831       12.65566
H         96.38233       28.11078       10.29225
H         97.96976       27.44123       10.82810
H         96.43752       26.78085       11.51846
N         95.81319       29.18018       12.80224
C         95.77011       30.18896       13.85592
C         96.51493       29.72705       15.10802
O         96.25943       28.64806       15.61275
C         94.32802       30.67657       14.12980
C         93.27576       29.67860       14.54891
O         93.52086       28.36371       14.68510
O         92.14805       30.08619       14.77437
H         94.92633       28.81344       12.42390
H         96.28608       31.09722       13.47038
H         93.95703       31.15198       13.19494
H         94.38496       31.46874       14.90811
N         97.52432       30.49354       15.60595
C         98.42777       30.08796       16.68357
C         97.73358       29.97812       18.04006
O         97.00877       30.88917       18.41418
C         99.60984       31.08088       16.72050
C        100.81273       30.55988       17.52013
C        102.05470       31.42039       17.22549
C        103.35042       30.83428       17.80559
N        103.36808       30.85297       19.26649
H         97.71459       31.38958       15.13001
H         98.86681       29.10571       16.40012
H         99.29112       32.08821       17.07068
H         99.95780       31.18020       15.66763
H        101.03765       29.52676       17.17575
H        100.57284       30.53204       18.60375
H        101.90326       32.46294       17.57966
H        102.19906       31.44990       16.12217
H        104.20383       31.44172       17.43021
H        103.48958       29.79313       17.43593
H        104.28686       30.47627       19.59408
H        103.26508       31.83552       19.60924
H        102.60632       30.25366       19.65489
N         97.97460       28.90434       18.85489
C         97.36526       28.70400       20.17917
C         98.43203       28.82860       21.26338
O         99.59365       28.98442       20.91049
C         96.76216       27.27553       20.23267
C         95.86236       27.01631       19.06719
O         96.17312       26.17271       18.24057
O         94.75585       27.75214       18.87328
H         98.65382       28.19640       18.53427
H         96.58105       29.47081       20.35924
H         96.20232       27.08372       21.16691
H         97.59956       26.54181       20.19030
N         98.18411       28.72841       22.60429
C         96.89672       28.59756       23.26901
C         96.80331       29.52923       24.46670
O         97.67042       30.36819       24.64906
H         99.00145       28.71427       23.22409
H         96.83714       27.56354       23.66903
H         96.03917       28.77088       22.58920
N         95.75926       29.40676       25.33603
C         95.57762       30.17751       26.57393
C         96.59010       29.76441       27.65766
O         96.20041       29.07665       28.59337
C         94.12546       29.93990       27.07959
C         93.75099       30.74268       28.30317
O         92.63638       30.61579       28.78350
O         94.62120       31.59767       28.87688
H         95.03479       28.71370       25.08869
H         95.65656       31.26652       26.36277
H         93.98543       28.85880       27.30635
H         93.41476       30.21424       26.27058
N         97.90034       30.14801       27.61354
C         98.87630       29.73864       28.61785
C         99.86131       28.72939       28.07177
O        100.64914       28.21385       28.85311
H         98.23638       30.74568       26.85017
H         98.37389       29.23731       29.47164
H         99.39991       30.63013       29.02462
N         99.85531       28.36182       26.75941
C        100.65308       27.27483       26.21250
C         99.70166       26.24307       25.60594
O         98.51214       26.51266       25.48434
C        101.70840       27.87728       25.23767
C        102.56522       26.84833       24.50358
O        101.08724       28.70241       24.29090
H         99.22741       28.84061       26.09976
H        101.20322       26.75324       27.02620
H        102.38138       28.49988       25.87374
H        101.76658       29.35679       23.97902
H        101.93480       26.28187       23.79360
H        103.34232       27.36522       23.90237
H        103.06552       26.16373       25.21887
N        100.14772       25.01214       25.24075
C         99.27114       23.99056       24.67931
C         98.45561       23.34827       25.79587
O         97.25063       23.20475       25.65303
C        100.07143       22.92152       23.87179
C        101.11595       23.53755       22.89602
C         99.10214       22.01048       23.09033
C        100.55825       24.53196       21.87062
H        101.13860       24.78219       25.39624
H         98.59183       24.46850       23.93713
H        100.64887       22.28806       24.58095
H        101.63511       22.71911       22.35299
H        101.90249       24.05049       23.48048
H         99.66617       21.24734       22.51371
H         98.41062       21.48074       23.77644
H         98.48766       22.60209       22.37743
H         99.83798       24.04228       21.18593
H        100.06688       25.39310       22.36953
H        101.39697       24.93032       21.26081
N         99.06699       22.97735       26.96020
C         98.38679       22.34263       28.08854
C         99.10441       21.04751       28.46853
O        100.07280       20.67297       27.82273
C         98.22262       23.34788       29.27239
C         99.51520       24.02747       29.73368
O         97.26079       24.32374       28.95487
H        100.07172       23.18099       27.07072
H         97.35459       22.03848       27.80834
H         97.81424       22.80432       30.14792
H         97.56284       24.80386       28.14233
H         99.92501       24.67360       28.92901
H         99.29281       24.67612       30.60936
H        100.27284       23.27492       30.03204
N         98.63571       20.29268       29.50247
C         99.14766       18.97575       29.86729
C         98.00797       17.96637       29.83919
O         98.15931       16.92970       29.20633
C         99.89324       18.99279       31.23103
C         99.08353       19.47679       32.43711
O        101.03633       19.80245       31.10644
H         97.84789       20.66003       30.04684
H         99.91738       18.63189       29.13861
H        100.20310       17.93728       31.43748
H        101.79453       19.31536       31.52644
H         98.21394       18.82099       32.63248
H         99.72435       19.44110       33.34447
H         98.74852       20.52435       32.28995
N         96.83653       18.20539       30.50042
C         95.75428       17.24280       30.62223
C         94.47152       17.78615       30.01481
O         94.02815       18.85302       30.42135
C         95.53303       16.98048       32.12399
C         94.52937       15.85130       32.38307
C         94.26160       15.70690       33.88382
C         93.36680       14.49570       34.16528
N         93.06822       14.38954       35.59240
H         96.70456       19.10216       30.98892
H         96.02790       16.28041       30.13584
H         95.18546       17.92083       32.60989
H         96.50100       16.69400       32.59161
H         94.95416       14.90759       31.97614
H         93.56322       16.05767       31.87307
H         93.76679       16.63408       34.25083
H         95.22194       15.57619       34.42877
H         93.89168       13.57357       33.82870
H         92.41431       14.58643       33.59744
H         92.52119       15.22482       35.90432
H         92.49788       13.52942       35.75871
H         93.95409       14.32168       36.14440
N         93.77310       17.05907       29.09559
C         92.44867       17.45597       28.62885
C         92.47383       18.79583       27.89339
O         91.77164       19.69010       28.34322
C         91.77258       16.31996       27.82351
C         90.30919       16.64940       27.48393
C         89.65302       15.51413       26.75172
O         89.19557       15.68747       25.63337
O         89.55069       14.30266       27.33174
H         94.15612       16.15125       28.78819
H         91.80848       17.57496       29.53425
H         91.78283       15.40182       28.45258
H         92.32535       16.08295       26.89890
H         90.26642       17.56587       26.85639
H         89.74100       16.83722       28.42095
N         93.23085       19.06691       26.78933
C         94.15392       18.14897       26.15897
H         94.93418       17.82882       26.87864
H         93.62650       17.27771       25.73537
H         94.65915       18.65860       25.31095
H         93.16606       20.01321       26.38176
Ca        94.06925       27.67617       16.74537
O         96.82674       25.72278       14.61001
H         97.45625       25.24021       14.01723
H         96.28234       25.00907       15.02816

Ca 1.0



