%chk=apoCaM-CA-Ng.loop1.water3.frame1494.chk
%nprocshared=20
%mem=10GB
%nosave
#b3lyp/svp scf=(tight,noincore,xqc) Test 
#IOP(5/87=12) Density=Current Pop=(MK,readradii) iop(6/33=2) iop(6/42=6)

apoCaM-CA-Ng.loop1.water3.frame1494 

   0  1 
C         42.61135       66.06953       29.73893
C         43.43654       64.86339       29.41455
O         44.44328       64.64353       30.07240
H         41.60054       65.74308       30.05952
H         43.07529       66.64935       30.56580
H         42.52595       66.72275       28.84620
N         43.07365       64.03812       28.39111
C         43.82131       62.83262       28.05026
C         44.59606       62.97639       26.75650
O         45.35177       62.06150       26.45627
C         42.90783       61.58506       28.03122
C         41.89876       61.57191       26.90977
O         40.93396       62.50777       26.83345
O         41.93574       60.68260       26.07430
H         42.24989       64.29546       27.82915
H         44.59157       62.64868       28.83115
H         42.37526       61.49594       29.00155
H         43.55533       60.68617       27.92166
N         44.49254       64.07564       25.94485
C         45.31348       64.22791       24.75104
C         46.03087       65.58309       24.74603
O         45.89855       66.29727       23.75944
C         44.44293       64.06322       23.48240
C         43.61754       62.76960       23.48245
C         42.90597       62.58649       22.13288
C         41.98483       61.35636       22.09852
N         40.77991       61.54642       22.90991
H         43.81681       64.82266       26.16013
H         46.08007       63.42864       24.70338
H         45.12063       64.07064       22.59899
H         43.73432       64.91693       23.39430
H         42.88092       62.83534       24.30812
H         44.27865       61.89300       23.65921
H         43.69344       62.45450       21.35859
H         42.31164       63.48895       21.87091
H         42.54094       60.45238       22.43266
H         41.66701       61.19207       21.04545
H         40.18433       60.69009       22.84175
H         41.01492       61.70475       23.91233
H         40.23359       62.36216       22.54847
N         46.79819       66.06833       25.77007
C         47.03316       65.44121       27.07226
C         47.72414       64.09079       26.98772
O         48.20398       63.69060       25.93844
C         47.77505       66.39283       28.07261
C         48.96947       67.17280       27.56114
O         50.23035       67.00243       28.01126
O         48.77601       68.10249       26.79563
H         47.18486       67.00307       25.60360
H         46.04415       65.24575       27.53441
H         48.05120       65.83730       28.98945
H         47.05199       67.17121       28.39670
N         47.76567       63.32236       28.11414
C         48.33896       61.99024       28.20669
C         49.57378       62.02682       29.07061
O         49.97484       63.10575       29.46621
H         47.35895       63.70184       28.97800
H         48.61319       61.58826       27.21056
H         47.57792       61.31839       28.66133
N         50.23624       60.87759       29.40266
C         51.47233       60.87791       30.20246
C         51.65348       59.56759       30.97814
O         50.95858       58.60812       30.68444
C         52.68941       61.14270       29.27234
C         52.64048       62.53937       28.74721
O         52.60752       63.56414       29.62147
O         52.52302       62.74789       27.55169
H         49.82822       59.98647       29.08870
H         51.37274       61.66539       30.97200
H         52.68454       60.40280       28.44117
H         53.65644       61.03707       29.78089
N         52.55048       59.42363       32.01167
C         53.39593       60.47417       32.56887
C         52.60391       61.56758       33.24521
O         51.41193       61.40552       33.46022
H         52.62588       58.49269       32.45089
H         54.04496       60.90307       31.79212
H         54.08181       60.04768       33.33173
N         53.21330       62.73914       33.57918
C         52.51325       63.87863       34.17365
C         51.32469       64.27835       33.30743
O         51.47112       64.36505       32.09917
C         53.49309       65.05738       34.39337
C         52.82021       66.24973       35.08638
O         54.04117       65.46712       33.16814
H         54.21849       62.83502       33.36108
H         52.14039       63.58042       35.17860
H         54.30421       64.68197       35.06261
H         54.92236       65.87882       33.36995
H         53.56865       67.04929       35.27100
H         52.00771       66.67136       34.45813
H         52.39342       65.93627       36.06263
N         50.11009       64.50992       33.88902
C         48.84470       64.75897       33.19804
C         48.91692       65.93993       32.23525
O         49.49518       65.79486       31.16857
C         48.35379       63.47242       32.46101
C         48.24642       62.26858       33.43005
C         46.99813       63.71621       31.76542
C         48.05954       60.93012       32.70624
H         50.06069       64.48077       34.91866
H         48.08968       64.99248       33.98179
H         49.11352       63.22370       31.69861
H         47.42084       62.43281       34.15472
H         49.18004       62.17512       34.01401
H         47.05617       64.56936       31.06141
H         46.68161       62.83601       31.17149
H         46.21288       63.94476       32.51600
H         48.04179       60.10710       33.45069
H         47.11086       60.89188       32.13642
H         48.90774       60.75008       32.01120
N         48.27792       67.11421       32.51067
C         48.11870       68.17543       31.51337
C         48.91363       69.43316       31.80356
O         48.96986       70.27759       30.91846
C         46.61746       68.52458       31.33810
C         45.97371       69.09940       32.61323
O         45.91206       67.37278       30.95008
H         47.85317       67.23111       33.44081
H         48.50127       67.82045       30.53290
H         46.54118       69.31237       30.54872
H         45.42224       67.58846       30.11417
H         45.96314       68.35803       33.43807
H         46.51423       70.00672       32.95799
H         44.92033       69.38291       32.40936
N         49.51700       69.67044       33.00131
C         50.21244       70.92914       33.25363
C         51.53828       70.95554       32.50240
O         52.43264       70.19193       32.83590
C         50.38244       71.18518       34.76806
C         49.00676       71.34057       35.44269
O         51.09650       70.13086       35.36056
H         49.40962       68.98632       33.76352
H         49.56974       71.76033       32.88248
H         50.94348       72.13989       34.89400
H         51.31613       70.41729       36.28522
H         48.44693       72.18385       34.98275
H         48.39721       70.41789       35.34048
H         49.13125       71.55921       36.52334
N         51.70398       71.80409       31.44303
C         52.89859       71.91834       30.60160
C         53.22793       70.62926       29.85825
O         52.72214       69.57457       30.20732
C         54.11301       72.45778       31.38729
C         53.84129       73.86733       31.94142
C         55.06031       74.41203       32.70206
C         54.84418       75.82984       33.26394
N         54.69256       76.83556       32.20921
H         50.91255       72.41381       31.18706
H         52.65541       72.66076       29.80799
H         54.98790       72.52162       30.70344
H         54.37469       71.76412       32.21489
H         52.96820       73.84254       32.62964
H         53.60391       74.53128       31.08448
H         55.95304       74.41852       32.03932
H         55.26767       73.73234       33.55733
H         55.73511       76.09494       33.87553
H         53.95535       75.84508       33.93285
H         54.62592       77.78153       32.64985
H         55.52454       76.82110       31.57528
H         53.82056       76.67412       31.65834
N         54.02172       70.66940       28.74597
C         54.32246       69.49124       27.93185
C         53.06599       68.74222       27.51164
O         53.01716       67.55271       27.78613
C         55.13565       69.82168       26.65853
C         56.55352       70.32061       26.94933
C         57.29947       70.53267       25.66129
O         56.90442       71.35314       24.84778
O         58.40351       69.80933       25.39329
H         54.38497       71.58551       28.44200
H         54.94090       68.79189       28.53780
H         54.59890       70.55698       26.02492
H         55.23934       68.88211       26.06793
H         57.08726       69.55503       27.55383
H         56.53030       71.27217       27.51876
N         52.01188       69.29317       26.84057
C         51.83900       70.68430       26.48461
H         50.91136       71.06067       26.96642
H         52.66705       71.33365       26.80544
H         51.72708       70.76673       25.38448
H         51.24102       68.67135       26.56826
Ca        51.46593       65.41324       29.02545
O         51.49255       65.05175       25.99230
H         51.69798       64.18975       25.55220
H         50.65113       64.87784       26.48318
O         54.53165       66.22523       30.08919
H         54.56977       67.19376       30.28934
H         55.12291       65.81174       30.76615
O         51.99018       67.18116       31.60449
H         52.67674       67.58046       32.19384
H         51.27969       67.86688       31.54990

Ca 1.0



