%chk=apoCaM-CA-Ng.loop2.water4.frame1327.chk
%nprocshared=20
%mem=10GB
%nosave
#b3lyp/svp scf=(tight,noincore,xqc) Test 
#IOP(5/87=12) Density=Current Pop=(MK,readradii) iop(6/33=2) iop(6/42=6)

apoCaM-CA-Ng.loop2.water4.frame1327 

   -2  1 
C         57.66731       50.96500       16.23573
C         58.38514       52.26828       16.45646
O         59.51898       52.38598       16.01536
H         56.74191       51.13787       15.64723
H         58.30977       50.25615       15.67008
H         57.41377       50.50158       17.21191
N         57.82312       53.31863       17.12134
C         56.47973       53.32760       17.69448
C         56.50037       53.54302       19.20339
O         55.42816       53.55114       19.79291
C         55.64395       54.42365       16.99791
C         56.19969       55.80418       17.23324
O         56.67747       56.52727       16.20654
O         56.23674       56.27199       18.36010
H         58.38559       54.17767       17.21507
H         55.96954       52.35952       17.51616
H         54.59243       54.39522       17.35737
H         55.63449       54.21129       15.90648
N         57.66311       53.74037       19.89495
C         57.70917       53.98605       21.32908
C         58.34373       55.33294       21.66548
O         58.45886       55.61503       22.85070
C         58.49334       52.84871       21.99219
H         58.56756       53.71035       19.40377
H         56.68735       53.98619       21.76743
H         58.00361       51.87590       21.77193
H         59.53671       52.81820       21.61096
H         58.51686       52.97994       23.09522
N         58.77708       56.21625       20.70887
C         59.44315       57.47705       21.04163
C         58.66117       58.69660       20.56876
O         57.62860       58.56604       19.92655
C         60.89073       57.46527       20.50216
C         60.97964       57.33336       19.00672
O         60.50000       58.18649       18.27751
O         61.62101       56.28019       18.46627
H         58.66071       55.99159       19.71073
H         59.51995       57.58518       22.14523
H         61.42661       56.61013       20.96879
H         61.42208       58.39132       20.80650
N         59.10073       59.93523       20.93154
C         58.40747       61.18382       20.66450
C         58.38769       61.61814       19.21488
O         58.82289       60.89697       18.32882
H         59.94895       60.00035       21.51394
H         58.94200       61.98569       21.21939
H         57.37022       61.13394       21.06161
N         57.88931       62.85674       18.93333
C         57.76985       63.44865       17.59978
C         59.10126       63.74579       16.90918
O         59.04801       64.27177       15.80464
C         56.99799       64.79185       17.69930
C         55.61919       64.63627       18.28921
N         54.68253       63.88005       17.67207
O         55.34176       65.21260       19.33052
H         57.53581       63.40377       19.73443
H         57.18956       62.75872       16.95288
H         56.87923       65.24618       16.69133
H         57.59039       65.49869       18.32424
H         54.89243       63.39752       16.78664
H         53.73991       63.78392       18.07747
N         60.32059       63.46256       17.45512
C         61.56869       63.85473       16.81412
C         62.23942       62.69471       16.11283
O         61.69644       61.60097       16.12581
H         60.39394       62.97162       18.35520
H         62.23009       64.30202       17.58680
H         61.38862       64.62930       16.03820
N         63.41945       62.83390       15.43893
C         64.21905       64.05342       15.41256
C         64.38520       64.59277       13.99648
O         64.16539       65.78265       13.82097
C         65.58741       63.78208       16.08219
C         66.39527       65.07386       16.25760
O         65.38686       63.23352       17.36085
H         63.79999       62.00342       14.95879
H         63.74563       64.85313       16.01827
H         66.18709       63.07940       15.45690
H         65.35774       62.24666       17.25643
H         66.59740       65.55746       15.28428
H         65.83827       65.79233       16.89831
H         67.36709       64.85078       16.74585
N         64.81399       63.80817       12.95633
C         65.16323       64.34183       11.63426
C         64.28850       63.73724       10.51844
O         64.36526       62.53036       10.33516
C         66.66240       63.99876       11.33815
C         67.63652       64.41252       12.47312
C         67.12671       64.56688        9.98316
C         67.73730       65.91589       12.72919
H         64.96559       62.80202       13.12129
H         65.06558       65.44121       11.63872
H         66.74723       62.88981       11.27415
H         68.65350       64.03563       12.22663
H         67.33397       63.91131       13.41627
H         68.18017       64.27274        9.78803
H         66.51178       64.16555        9.15123
H         67.04879       65.67306        9.96481
H         66.75316       66.33945       13.00993
H         68.44590       66.09086       13.56663
H         68.12713       66.44634       11.83805
N         63.49753       64.47275        9.66447
C         63.17828       65.88899        9.82374
C         62.50139       66.50658        8.59646
O         61.48971       65.99195        8.13859
C         62.22563       66.07165       11.03079
C         60.90797       65.35166       10.87077
O         59.86282       65.98227       10.85983
O         60.87370       64.01095       10.74311
H         63.05678       63.97246        8.87604
H         64.11113       66.46317        9.99900
H         62.03750       67.15921       11.17214
H         62.69299       65.68834       11.94788
N         62.94540       67.70649        8.11187
C         62.19501       68.52426        7.16103
C         63.06718       68.96214        5.98826
O         64.14393       69.48417        6.25010
C         61.73250       69.80301        7.89431
C         60.78442       70.61042        7.04115
C         59.45308       70.18758        6.88445
C         61.21652       71.77785        6.38994
C         58.56714       70.92479        6.09410
C         60.33066       72.50358        5.58679
C         59.00650       72.07975        5.44229
H         63.78556       68.13009        8.53583
H         61.28082       67.99846        6.83071
H         62.62903       70.40475        8.16544
H         61.21697       69.55677        8.84847
H         59.10078       69.29278        7.38295
H         62.24088       72.11470        6.48763
H         57.54062       70.59909        5.98567
H         60.67057       73.39464        5.07530
H         58.32079       72.64561        4.82505
N         62.65805       68.90854        4.68053
C         61.39281       68.38597        4.18104
C         61.21543       66.91986        4.48384
O         60.16894       66.52858        4.97984
C         61.48545       68.59577        2.66099
C         62.32846       69.84570        2.57558
C         63.40546       69.54175        3.61115
H         60.55827       68.99795        4.58677
H         62.09069       67.78804        2.18926
H         60.50228       68.63897        2.14508
H         62.71482       70.08977        1.56347
H         61.71206       70.69946        2.94272
H         64.15782       68.82011        3.22280
H         63.89291       70.49457        3.91328
N         62.23413       66.05471        4.22902
C         62.15012       64.62412        4.47258
C         61.19025       64.01066        3.46300
O         61.45467       64.12434        2.27401
C         63.54883       63.98377        4.32997
C         64.51409       64.49264        5.41858
C         65.89658       63.94607        5.21815
O         66.52246       64.21789        4.20547
O         66.46449       63.17592        6.16520
H         63.11603       66.44273        3.85975
H         61.82090       64.45139        5.51825
H         63.95492       64.21783        3.31996
H         63.46705       62.87864        4.42676
H         64.13007       64.18294        6.41537
H         64.58435       65.60059        5.40658
N         60.05077       63.35233        3.81771
C         59.62112       63.15686        5.18465
H         58.66325       62.59505        5.19949
H         60.38124       62.57296        5.74445
H         59.45361       64.13535        5.67960
H         59.45170       62.96907        3.06973
Ca        57.65307       58.50132       16.69258
O         60.04457       59.47472       15.33715
H         60.22159       59.14372       14.42174
H         59.47936       60.27800       15.20776
O         55.23829       60.29688       16.80108
H         54.96842       59.62925       16.12142
H         55.98895       60.78471       16.37908
O         59.80989       56.07647       15.59333
H         60.02697       55.68228       16.47420
H         60.69111       56.29978       15.20192
O         57.38727       58.47633       13.60449
H         58.19446       57.96420       13.34678
H         56.69847       57.78474       13.76978

Ca 1.0



