%chk=apoCaM-CA-Ng.loop2.water5.frame5.chk
%nprocshared=20
%mem=10GB
%nosave
#b3lyp/svp scf=(tight,noincore,xqc) Test 
#IOP(5/87=12) Density=Current Pop=(MK,readradii) iop(6/33=2) iop(6/42=6)

apoCaM-CA-Ng.loop2.water5.frame5 

   -2  1 
C         46.90350       38.71019       63.66174
C         45.85165       39.77065       63.79825
O         44.72718       39.45466       64.15800
H         47.75161       38.92997       64.34228
H         46.49131       37.70797       63.90804
H         47.27170       38.69153       62.61365
N         46.15840       41.06977       63.52804
C         45.17865       42.14993       63.56767
C         44.15248       41.97675       62.46128
O         42.97073       42.09573       62.74437
C         45.86782       43.51837       63.44070
C         44.87820       44.63978       63.62446
O         44.17916       44.74299       64.77261
O         44.70283       45.45859       62.73720
H         47.13486       41.29576       63.28186
H         44.67749       42.14387       64.56382
H         46.37455       43.60217       62.45495
H         46.63382       43.61190       64.24074
N         44.53131       41.64060       61.18545
C         43.59046       41.38779       60.08833
C         42.60889       40.24919       60.39725
O         41.66602       40.05182       59.64406
C         42.85930       42.68408       59.71932
H         45.53566       41.51992       60.98491
H         44.16389       41.09125       59.18150
H         42.22452       43.05314       60.54874
H         43.60533       43.46597       59.45919
H         42.21709       42.51846       58.82775
N         42.79025       39.45139       61.48810
C         41.91185       38.39265       61.95511
C         40.56709       38.97207       62.37770
O         39.52563       38.52111       61.92064
C         41.84549       37.25030       60.91682
C         41.50479       35.94353       61.56700
O         42.34826       35.46230       62.50430
O         40.52780       35.29981       61.22127
H         43.62899       39.58216       62.05486
H         42.39410       37.98811       62.87451
H         42.85898       37.09784       60.48564
H         41.15829       37.50737       60.08133
N         40.54230       40.03763       63.23276
C         39.32994       40.74400       63.61440
C         38.54215       40.06507       64.71349
O         37.47559       40.56498       65.04251
H         41.43629       40.42586       63.55850
H         38.70096       40.90589       62.71123
H         39.60573       41.74775       64.00448
N         38.99313       38.94320       65.34379
C         38.22349       38.25301       66.37876
C         38.03880       39.08669       67.64376
O         38.61897       40.15489       67.77733
C         38.90229       36.91232       66.72335
C         38.94931       36.02416       65.50452
N         40.12932       35.65694       64.95672
O         37.90436       35.64447       64.99657
H         39.89445       38.53900       65.05163
H         37.21153       38.04012       65.96568
H         38.34550       36.37389       67.51887
H         39.92856       37.11729       67.10214
H         41.02479       35.97407       65.35557
H         40.14187       35.06220       64.11667
N         37.16882       38.65071       68.59908
C         36.83669       39.38424       69.80921
C         37.92946       39.33522       70.85228
O         38.31442       38.24450       71.24946
H         36.64465       37.78028       68.42149
H         35.95501       38.89423       70.27658
H         36.53583       40.42353       69.55418
N         38.41684       40.48464       71.40567
C         39.35264       40.49523       72.53755
C         40.73506       39.94530       72.18428
O         41.55762       39.82396       73.08394
C         39.44242       41.93452       73.11830
C         40.15883       42.01507       74.47679
O         40.06797       42.78406       72.19081
H         38.03388       41.38169       71.07016
H         38.90877       39.85222       73.33035
H         38.39323       42.27063       73.29426
H         39.81128       43.71235       72.43083
H         41.23357       41.76081       74.40539
H         40.09647       43.05173       74.86890
H         39.66831       41.33802       75.20873
N         41.06955       39.56941       70.91963
C         42.38136       39.04431       70.55927
C         42.27460       37.57271       70.22866
O         41.16539       37.05281       70.14223
C         43.00937       39.87674       69.38856
C         42.09169       39.91412       68.12779
C         43.33453       41.29524       69.88688
C         42.70720       40.60867       66.91101
H         40.36222       39.62302       70.17682
H         43.07168       39.08792       71.43106
H         43.97274       39.40038       69.10401
H         41.14751       40.44875       68.35171
H         41.84668       38.87383       67.82423
H         43.86914       41.88172       69.11308
H         42.40883       41.83701       70.17519
H         44.00680       41.24051       70.76929
H         42.90517       41.68142       67.10971
H         43.64782       40.10462       66.61084
H         41.98959       40.56047       66.06346
N         43.40058       36.83028       70.03461
C         43.36789       35.44172       69.60443
C         44.13233       34.49212       70.54716
O         44.19581       33.31347       70.24528
C         43.88635       35.43887       68.15359
C         43.51890       34.23017       67.34384
O         43.77136       34.22874       66.15127
O         42.85074       33.19023       67.87933
H         44.32250       37.29231       70.11333
H         42.31405       35.08700       69.56706
H         44.98264       35.62280       68.13211
H         43.38973       36.28501       67.62591
N         44.69667       34.91742       71.72515
C         45.38014       34.01781       72.66945
C         46.63243       33.42496       72.03400
O         47.55138       34.18737       71.78064
C         45.76352       34.81589       73.94441
C         46.59800       34.06263       74.96090
C         46.11233       32.91055       75.60256
C         47.88139       34.53927       75.29418
C         46.89741       32.25293       76.55962
C         48.65985       33.88027       76.24880
C         48.16832       32.73843       76.88271
H         44.60450       35.90831       71.98455
H         44.66838       33.22067       72.96283
H         44.83529       35.17548       74.43827
H         46.33134       35.71624       73.62026
H         45.12794       32.52642       75.37035
H         48.28161       35.42696       74.82004
H         46.52053       31.36871       77.05686
H         49.64301       34.25912       76.49972
H         48.77255       32.23296       77.62577
N         46.76570       32.08618       71.74991
C         47.92872       31.50225       71.09585
C         48.42635       32.28891       69.89445
O         49.58663       32.67737       69.89196
C         47.44024       30.10527       70.67914
C         46.53380       29.75116       71.83249
C         45.78138       31.06388       72.05686
H         48.73956       31.41971       71.85519
H         46.78282       30.17257       69.78344
H         48.24866       29.37530       70.46119
H         45.88221       28.86370       71.68102
H         47.19097       29.56281       72.71223
H         44.92025       31.17051       71.36563
H         45.44115       31.08537       73.11459
N         47.61257       32.55535       68.83207
C         48.08055       33.27463       67.64845
C         48.37865       34.73781       67.94441
O         49.13040       35.33959       67.19056
C         47.05926       33.16976       66.50106
C         46.89371       31.71423       66.02978
C         45.86225       31.59276       64.94730
O         46.17808       31.20071       63.83593
O         44.57380       31.87311       65.20863
H         46.64241       32.20702       68.85540
H         49.02428       32.79386       67.30463
H         47.40332       33.77690       65.63471
H         46.09525       33.57985       66.85504
H         46.58316       31.05508       66.86687
H         47.87505       31.35614       65.64929
N         47.81246       35.38033       69.00449
C         48.10033       36.75467       69.36430
H         48.84300       37.22543       68.68680
H         47.16383       37.34936       69.33674
H         48.50967       36.78216       70.39706
H         47.12963       34.88187       69.58479
Ca        42.21254       33.45342       63.51603
O         39.82841       32.10874       62.29341
H         40.36990       32.18098       61.46763
H         39.67229       33.04636       62.57023
O         40.32008       32.26807       65.58588
H         41.07697       32.82495       65.89618
H         39.54210       32.87963       65.60379
O         43.30725       32.50897       60.94910
H         43.98283       32.54715       60.22704
H         42.85267       31.63867       60.82165
O         45.31417       34.59165       62.95879
H         45.48134       35.27506       62.26188
H         46.20542       34.41325       63.35113
O         42.46666       30.36893       63.78377
H         41.60455       30.11828       63.36726
H         43.13835       30.23271       63.06911

Ca 1.0



