%chk=apoCaM-CA-Ng.loop2.water5.frame196.chk
%nprocshared=20
%mem=10GB
%nosave
#b3lyp/svp scf=(tight,noincore,xqc) Test 
#IOP(5/87=12) Density=Current Pop=(MK,readradii) iop(6/33=2) iop(6/42=6)

apoCaM-CA-Ng.loop2.water5.frame196 

   -2  1 
C         25.33980       22.90666       19.75114
C         26.84416       22.89340       19.74540
O         27.43882       23.28903       18.75402
H         24.95616       22.26573       18.92993
H         24.93167       22.51920       20.71006
H         24.97193       23.94370       19.60986
N         27.52335       22.42894       20.82858
C         28.97452       22.35935       20.94157
C         29.39714       20.88325       20.98834
O         28.53531       20.01484       20.96335
C         29.35181       23.12019       22.24258
C         30.78958       23.52852       22.42989
O         31.59706       23.47501       21.51778
O         31.16355       24.06868       23.60524
H         26.97989       22.10988       21.63534
H         29.44366       22.84529       20.05915
H         29.02624       22.49861       23.10663
H         28.77906       24.07215       22.28887
N         30.70643       20.51488       21.06143
C         31.14731       19.12855       21.19114
C         30.92536       18.27836       19.93924
O         31.27453       17.10704       19.98829
C         32.64643       19.11141       21.53875
H         31.42419       21.24352       21.08309
H         30.61027       18.66782       22.04884
H         33.00218       18.07458       21.71735
H         33.24389       19.56047       20.71545
H         32.82676       19.69703       22.46656
N         30.40800       18.78361       18.77748
C         30.36529       18.02203       17.52905
C         28.95795       17.89675       16.97036
O         28.20979       18.86337       17.00154
C         31.22608       18.74033       16.47342
C         32.64328       18.93448       16.93482
O         33.41007       17.87142       17.24274
O         33.10628       20.06016       17.02922
H         30.10919       19.76702       18.73382
H         30.79291       17.00267       17.65858
H         30.77747       19.73308       16.24501
H         31.23742       18.14132       15.53614
N         28.60050       16.76319       16.29577
C         27.37059       16.62404       15.52666
C         26.58148       15.41132       15.95664
O         27.14040       14.32407       15.98578
H         29.27605       15.98525       16.24330
H         27.65535       16.48275       14.46187
H         26.74199       17.53829       15.58112
N         25.25683       15.52235       16.26987
C         24.43344       14.40371       16.71795
C         23.30526       14.14388       15.72683
O         22.60320       15.06995       15.34677
C         23.89177       14.71244       18.12374
C         23.21211       13.53080       18.78787
N         22.76062       13.64194       20.05487
O         23.08579       12.46514       18.20366
H         24.80737       16.44821       16.19851
H         25.05532       13.48586       16.81403
H         23.19681       15.57802       18.08114
H         24.75380       14.99676       18.76180
H         22.87909       14.51915       20.57216
H         22.30806       12.84499       20.52538
N         23.07739       12.87690       15.28130
C         22.09173       12.50913       14.27874
C         20.65792       12.86091       14.62571
O         20.17537       12.46868       15.67907
H         23.65900       12.11157       15.65564
H         22.13147       11.40424       14.15388
H         22.37724       12.95949       13.30574
N         19.88392       13.50556       13.70043
C         18.43607       13.68235       13.83916
C         18.02930       14.67293       14.92506
O         16.85508       14.70778       15.26161
C         17.77314       14.04803       12.47892
C         18.22161       15.40215       11.89774
O         17.97310       13.01530       11.54269
H         20.33246       13.75952       12.80953
H         18.01782       12.69271       14.13147
H         16.67534       14.11934       12.63939
H         18.90541       13.06682       11.20728
H         19.31093       15.42301       11.68998
H         17.68758       15.59019       10.94205
H         17.98034       16.22574       12.59611
N         18.92900       15.51461       15.50355
C         18.60327       16.42302       16.60447
C         19.49446       16.10367       17.78990
O         20.33054       15.21552       17.69519
C         18.72647       17.91827       16.15970
C         20.09103       18.22888       15.49041
C         17.53718       18.28660       15.25686
C         20.31001       19.71655       15.20635
H         19.90065       15.50671       15.16578
H         17.56397       16.26417       16.96696
H         18.62645       18.56462       17.05625
H         20.18068       17.67587       14.53073
H         20.90964       17.89939       16.16568
H         17.53339       19.36729       15.01196
H         17.54874       17.69985       14.31940
H         16.58388       18.08438       15.79231
H         20.26282       20.29920       16.15053
H         21.31277       19.85924       14.75121
H         19.56168       20.11191       14.49053
N         19.37698       16.81489       18.94869
C         20.28356       16.62767       20.06677
C         19.53597       16.68586       21.40712
O         20.14245       16.95710       22.43323
C         21.43682       17.63389       19.86312
C         22.61962       17.39648       20.74209
O         23.78703       17.99736       20.48139
O         22.56298       16.63118       21.69026
H         18.71047       17.59799       18.99999
H         20.75318       15.62217       20.00851
H         21.09076       18.68663       19.95349
H         21.81085       17.48926       18.82574
N         18.21489       16.35237       21.48149
C         17.45905       16.30778       22.73294
C         17.39017       17.69808       23.35874
O         16.97891       18.61105       22.65850
C         16.02193       15.82597       22.44878
C         15.24611       15.62592       23.72484
C         15.48046       14.49431       24.52545
C         14.28996       16.57041       24.12970
C         14.76200       14.31018       25.71045
C         13.58464       16.38986       25.32233
C         13.81709       15.25907       26.11010
H         17.72679       16.08456       20.61391
H         17.94650       15.57119       23.40726
H         16.02108       14.86868       21.88284
H         15.52589       16.58387       21.80285
H         16.21231       13.75317       24.22736
H         14.10500       17.45410       23.53194
H         14.93890       13.43310       26.31964
H         12.85812       17.12784       25.63547
H         13.26541       15.11877       27.03030
N         17.72694       17.95368       24.66151
C         17.70639       19.28015       25.26672
C         18.56203       20.28501       24.51821
O         18.12513       21.40815       24.31122
C         18.28642       19.04315       26.66899
C         17.78790       17.65151       26.96994
C         18.06189       16.94246       25.64515
H         16.65186       19.62990       25.34488
H         19.39750       18.97021       26.62424
H         18.01490       19.82340       27.41270
H         18.23241       17.16350       27.86275
H         16.68321       17.71799       27.11596
H         19.13011       16.65846       25.52686
H         17.40634       16.05105       25.60705
N         19.81012       19.93410       24.09347
C         20.74940       20.85315       23.45169
C         20.27968       21.37519       22.08773
O         20.97130       22.22021       21.53638
C         22.16522       20.19990       23.38174
C         22.68581       19.92442       24.81741
C         24.10011       19.40513       24.94466
O         24.92393       20.07885       25.54095
O         24.46407       18.17782       24.52031
H         20.11819       18.96902       24.28064
H         20.84523       21.74963       24.10386
H         22.86576       20.90783       22.88671
H         22.12977       19.26625       22.78175
H         22.02574       19.20890       25.34603
H         22.64168       20.89189       25.36363
N         19.11242       20.97277       21.50275
C         18.59053       21.52618       20.26676
H         17.59557       21.98308       20.46445
H         19.24655       22.31111       19.83680
H         18.46235       20.71599       19.51933
H         18.53591       20.25694       21.94891
Ca        24.92733       17.91610       22.36051
O         25.96431       20.37194       22.81361
H         26.80639       20.18881       23.30016
H         26.13494       20.05078       21.89165
O         27.95450       16.94878       23.04971
H         28.43645       17.80379       22.92055
H         28.65970       16.30138       23.30244
O         27.09002       17.11029       20.05229
H         27.07767       17.93593       19.50684
H         27.55560       16.44432       19.48660
O         25.83110       14.54480       21.16254
H         25.36320       13.71674       21.43648
H         26.39889       14.26552       20.40114
O         24.70157       15.16438       23.97833
H         24.14718       14.43402       23.60479
H         25.45946       14.70311       24.41786

Ca 1.0



