%chk=apoCaM-CA-Ng.loop1.water3.frame1452.chk
%nprocshared=20
%mem=10GB
%nosave
#b3lyp/svp scf=(tight,noincore,xqc) Test 
#IOP(5/87=12) Density=Current Pop=(MK,readradii) iop(6/33=2) iop(6/42=6)

apoCaM-CA-Ng.loop1.water3.frame1452 

   0  1 
C         35.79103       84.59551      128.97273
C         35.43321       86.03933      128.79553
O         34.89745       86.37525      127.74948
H         34.87550       83.97383      128.89434
H         36.50040       84.29696      128.17047
H         36.27309       84.41243      129.95464
N         35.73540       86.96204      129.75757
C         35.49313       88.39200      129.57972
C         36.81495       89.11731      129.41942
O         37.04412       90.15911      130.01877
C         34.57825       88.95555      130.69033
C         35.12407       88.87162      132.09692
O         34.37157       89.32267      133.11784
O         36.23120       88.41296      132.33097
H         36.21603       86.64252      130.61065
H         34.96323       88.56003      128.62031
H         33.61776       88.39799      130.65906
H         34.36101       90.02298      130.46879
N         37.74092       88.58205      128.58137
C         39.01129       89.20289      128.24889
C         38.77407       90.42016      127.36609
O         39.26037       91.47854      127.73850
C         39.98166       88.17065      127.62595
C         40.25900       87.04377      128.64515
C         41.16315       85.94281      128.09106
C         41.33971       84.83475      129.14290
N         42.15051       83.73555      128.62477
H         37.52829       87.66788      128.15851
H         39.51698       89.53337      129.18624
H         40.94368       88.67023      127.37597
H         39.56762       87.73974      126.69315
H         39.30279       86.56509      128.94332
H         40.72603       87.47965      129.55667
H         42.15331       86.36687      127.81631
H         40.68956       85.50968      127.18334
H         40.34096       84.43712      129.43441
H         41.82403       85.25552      130.05270
H         42.24023       83.00173      129.36458
H         41.68647       83.31407      127.78747
H         43.10343       84.08066      128.36864
N         37.99668       90.42953      126.23557
C         37.25384       89.30190      125.66249
C         35.75540       89.48480      125.92542
O         35.36973       90.50291      126.48429
C         37.57383       89.17976      124.15242
C         37.10360       90.40312      123.42031
O         35.80255       90.71377      123.49289
O         37.88715       91.13679      122.85288
H         37.86160       91.34758      125.78221
H         37.54692       88.35307      126.12580
H         37.06415       88.29115      123.72332
H         38.67000       89.04513      124.01850
N         34.84888       88.52411      125.57845
C         33.42468       88.66194      125.87125
C         32.69924       89.58005      124.90783
O         33.26216       89.96916      123.90214
H         35.18680       87.63736      125.17522
H         33.30110       89.00963      126.91877
H         32.92954       87.67086      125.78940
N         31.41675       89.96329      125.16430
C         30.59316       90.76093      124.24504
C         29.22513       90.09977      124.08655
O         28.94413       89.16605      124.82610
C         30.49210       92.20117      124.80199
C         31.84682       92.83935      124.69788
O         32.49206       93.09381      125.70175
O         32.39055       93.01520      123.47449
H         31.01034       89.69334      126.07388
H         31.06334       90.78915      123.23855
H         30.14242       92.16040      125.85774
H         29.79038       92.83938      124.24098
N         28.29435       90.46843      123.15611
C         28.43261       91.47684      122.11734
C         29.46734       91.11439      121.07756
O         29.58108       89.95067      120.72084
H         27.39539       89.96015      123.16696
H         28.58137       92.49309      122.52515
H         27.46600       91.52402      121.57006
N         30.16239       92.10048      120.44635
C         31.08929       91.85422      119.34362
C         32.37015       91.21420      119.85478
O         32.92295       91.69018      120.83300
C         31.40157       93.16163      118.57689
C         30.12570       93.75229      117.95013
O         32.31758       92.87710      117.54937
H         29.96975       93.07582      120.72204
H         30.60569       91.18780      118.59328
H         31.84467       93.89736      119.28246
H         32.67921       93.74607      117.23412
H         29.37607       94.01820      118.72302
H         30.37199       94.67513      117.38441
H         29.66579       93.02343      117.24761
N         32.90312       90.14045      119.20121
C         34.11219       89.40139      119.57305
C         35.36348       90.27033      119.57612
O         35.46068       91.18408      120.38265
C         33.97448       88.69356      120.94747
C         32.62653       87.95635      121.13319
C         35.16420       87.74403      121.19781
C         32.32792       86.87876      120.09066
H         32.40942       89.80310      118.36054
H         34.23990       88.60406      118.80727
H         34.00938       89.47170      121.72844
H         31.80581       88.70057      121.10233
H         32.60576       87.49685      122.14545
H         36.12668       88.29641      121.17181
H         35.07800       87.27331      122.19936
H         35.20962       86.94738      120.42628
H         32.27559       87.31765      119.07319
H         33.09357       86.07811      120.11045
H         31.34094       86.42348      120.31620
N         36.39427       89.99362      118.73027
C         37.66457       90.71115      118.76697
C         37.84360       91.60347      117.55949
O         38.86761       92.26961      117.50089
C         38.85229       89.73713      118.98182
C         39.01673       88.69555      117.87109
O         38.69700       89.06647      120.20561
H         36.27409       89.24452      118.03360
H         37.68735       91.41480      119.62869
H         39.80071       90.32706      119.00293
H         39.05197       89.66822      120.91140
H         39.15926       89.18830      116.88700
H         39.91096       88.07089      118.08322
H         38.14007       88.01823      117.82086
N         36.87957       91.73940      116.59864
C         36.96597       92.75424      115.55374
C         36.93482       94.12125      116.22886
O         35.85695       94.56669      116.59372
C         35.79772       92.61168      114.53303
C         35.87558       91.30213      113.74386
O         34.55572       92.65184      115.19771
H         36.03386       91.15394      116.64258
H         37.92584       92.62571      115.00491
H         35.87459       93.43919      113.78693
H         34.08570       93.48059      114.92022
H         36.82435       91.25341      113.17027
H         35.81347       90.42128      114.41692
H         35.02747       91.24861      113.02731
N         38.09613       94.78475      116.52695
C         38.17417       96.02962      117.29672
C         37.62486       95.87571      118.70957
O         36.50917       95.41170      118.88904
C         37.49992       97.19789      116.56754
C         38.22333       97.49605      115.24875
C         37.59965       98.70084      114.54764
C         38.36302       99.03646      113.26229
N         37.74846      100.17224      112.57877
H         38.98984       94.37367      116.21808
H         39.24714       96.31088      117.39723
H         37.57748       98.10097      117.21403
H         36.42400       96.99346      116.38935
H         38.17307       96.61008      114.57853
H         39.29294       97.71766      115.46568
H         37.63150       99.58161      115.22661
H         36.53947       98.47041      114.30564
H         38.36151       98.15441      112.58395
H         39.41927       99.28469      113.51313
H         38.29541      100.38820      111.71466
H         36.76589       99.93553      112.30937
H         37.75110      101.01188      113.20258
N         38.34886       96.31239      119.77861
C         37.86988       96.16254      121.14572
C         37.87915       94.68965      121.52897
O         36.81689       94.18881      121.86648
C         38.65285       97.04416      122.14192
C         38.47132       98.53904      121.83265
C         39.21270       99.38390      122.82728
O         38.89933       99.32121      124.13571
O         40.09719      100.13780      122.45414
H         39.25110       96.78317      119.61305
H         36.81975       96.53551      121.20449
H         39.73098       96.81794      122.13106
H         38.26008       96.84802      123.16503
H         37.39318       98.80701      121.87330
H         38.84756       98.76103      120.81083
N         38.98444       93.88714      121.47694
C         40.31582       94.28624      121.07845
H         40.98393       93.39881      121.09298
H         40.31537       94.68756      120.04687
H         40.74468       95.00736      121.79457
H         38.87137       92.89700      121.71468
Ca        34.57410       92.56385      123.18308
O         35.64443       93.91014      125.92696
H         35.30580       92.98426      125.84790
H         34.84082       94.47552      125.80774
O         34.18407       94.33106      120.64218
H         34.33868       93.93812      119.74658
H         33.55744       95.08082      120.48510
O         34.30705       95.74747      123.35109
H         35.00244       96.33309      123.74313
H         33.54965       96.35429      123.15539

Ca 1.0



