%chk=apoCaM-CA-Ng.loop4.water5.frame780.chk
%nprocshared=20
%mem=10GB
%nosave
#b3lyp/svp scf=(tight,noincore,xqc) Test 
#IOP(5/87=12) Density=Current Pop=(MK,readradii) iop(6/33=2) iop(6/42=6)

apoCaM-CA-Ng.loop4.water5.frame780 

   -3  1 
C         93.49442      -19.82511       -4.74257
C         93.52873      -21.24097       -5.24631
O         93.14182      -21.47065       -6.38184
H         92.45140      -19.44544       -4.75373
H         93.88495      -19.75214       -3.70520
H         94.12260      -19.18269       -5.39509
N         93.99531      -22.24510       -4.44946
C         94.10558      -23.64991       -4.84361
C         95.06538      -23.79291       -6.01456
O         94.74323      -24.42993       -7.00907
C         92.71979      -24.26590       -5.14235
C         91.73883      -24.11888       -4.01424
O         90.56119      -24.35888       -4.22643
O         92.10253      -23.65121       -2.80237
H         94.31728      -22.00396       -3.49925
H         94.55222      -24.20416       -3.98832
H         92.80685      -25.34158       -5.40493
H         92.28924      -23.74120       -6.02115
N         96.27661      -23.17687       -5.95752
C         97.27253      -23.26346       -7.02052
C         97.89391      -24.66076       -7.01488
O         98.39060      -25.05759       -5.97067
C         98.32445      -22.10342       -6.91577
C         99.09560      -22.03479       -5.56677
C         97.61056      -20.77041       -7.23297
C        100.20332      -20.97738       -5.55951
H         96.46685      -22.59486       -5.13210
H         96.75520      -23.09201       -7.98391
H         99.08009      -22.26243       -7.71241
H         99.58683      -23.00790       -5.37217
H         98.41617      -21.81018       -4.72040
H         96.83993      -20.53585       -6.46831
H         98.32092      -19.92486       -7.30245
H         97.11388      -20.83307       -8.22517
H        100.93121      -21.17629       -6.37412
H         99.79435      -19.95325       -5.67233
H        100.73844      -21.01081       -4.58758
N         97.88139      -25.51438       -8.08844
C         97.39879      -25.19906       -9.43240
C         97.32678      -26.46681      -10.27646
O         98.34702      -27.10654      -10.49385
C         98.34079      -24.16821      -10.10733
C         97.94102      -23.81181      -11.51113
O         97.98553      -24.65309      -12.39310
O         97.58537      -22.54813      -11.81386
H         98.25630      -26.46359       -7.92766
H         96.37100      -24.78308       -9.36389
H         99.38131      -24.55927      -10.12716
H         98.34839      -23.23385       -9.52837
N         96.13484      -26.85966      -10.81025
C         95.96615      -28.01397      -11.67996
C         95.40861      -27.63057      -13.04086
O         95.09423      -28.53063      -13.80613
H         95.28924      -26.30669      -10.60008
H         95.24150      -28.69868      -11.18930
H         96.91633      -28.56947      -11.82856
N         95.24457      -26.32601      -13.41028
C         94.61544      -25.89636      -14.65270
C         95.58003      -25.14039      -15.55342
O         95.63976      -25.47089      -16.73094
C         93.32529      -25.09885      -14.34148
C         93.45368      -23.99909      -13.31297
O         92.75194      -24.08216      -12.16674
O         94.16200      -23.02674      -13.50242
H         95.54614      -25.58150      -12.76912
H         94.26842      -26.76978      -15.25155
H         92.59018      -25.82642      -13.93350
H         92.89924      -24.69398      -15.28611
N         96.37595      -24.13116      -15.09826
C         97.22746      -23.36228      -15.99105
C         96.43064      -22.36069      -16.80458
O         97.01206      -21.72256      -17.67020
H         96.39007      -23.89783      -14.09945
H         97.80089      -24.05634      -16.64511
H         97.96361      -22.77715      -15.39847
N         95.11177      -22.11423      -16.53375
C         94.28943      -21.13020      -17.21838
C         94.79559      -19.70285      -17.03592
O         94.30176      -18.81981      -17.72183
C         94.01380      -21.56436      -18.67396
C         93.24744      -22.90615      -18.66501
C         92.82682      -23.34922      -20.03900
N         93.21047      -24.55322      -20.52397
O         92.10355      -22.62847      -20.71034
H         94.64166      -22.62897      -15.78557
H         93.28687      -21.11258      -16.73373
H         94.95376      -21.64942      -19.25913
H         93.36660      -20.80008      -19.15726
H         92.32240      -22.79447      -18.05715
H         93.87336      -23.69125      -18.18842
H         93.80401      -25.18492      -19.96650
H         92.89993      -24.86331      -21.45641
N         95.65825      -19.38309      -16.02066
C         96.02262      -18.00969      -15.67177
C         95.50485      -17.62859      -14.28592
O         95.70070      -16.48129      -13.90293
C         97.56520      -17.80330      -15.72733
C         98.32246      -18.64426      -14.67987
C         98.11570      -18.08886      -17.12834
H         96.02586      -20.13192      -15.41995
H         95.55682      -17.29845      -16.38850
H         97.77345      -16.73240      -15.50371
H         97.97211      -18.40595      -13.65300
H         98.19325      -19.73156      -14.85700
H         99.40792      -18.41300      -14.71956
H         99.20456      -17.86919      -17.16001
H         97.96225      -19.15274      -17.40417
H         97.60978      -17.44369      -17.87702
N         94.88027      -18.52447      -13.46212
C         94.48621      -18.21397      -12.09348
C         92.99708      -18.43448      -11.89423
O         92.37034      -19.12174      -12.69209
C         95.30676      -19.12797      -11.15581
C         95.03921      -18.90597       -9.69052
N         94.54763      -19.90545       -8.92165
O         95.27924      -17.81776       -9.18933
H         94.71395      -19.49027      -13.77954
H         94.71320      -17.15056      -11.85852
H         96.39001      -18.95424      -11.33676
H         95.09013      -20.18758      -11.41917
H         94.34192      -20.83314       -9.32170
H         94.37425      -19.75132       -7.91888
N         92.35882      -17.85332      -10.83974
C         90.95213      -18.08777      -10.53333
C         90.46587      -17.10997       -9.47747
O         91.17953      -16.88304       -8.50812
C         90.76094      -19.53191      -10.01396
C         89.29707      -19.86212       -9.84868
C         88.75067      -20.10999       -8.57933
C         88.46369      -19.92244      -10.97833
C         87.38939      -20.40283       -8.44297
C         87.10681      -20.22127      -10.84156
C         86.56318      -20.45975       -9.57596
O         85.24996      -20.74262       -9.46255
H         92.90221      -17.21068      -10.24227
H         90.35573      -17.93056      -11.45880
H         91.30729      -19.63564       -9.04899
H         91.19429      -20.27363      -10.71694
H         89.37441      -20.06846       -7.69711
H         88.86686      -19.74208      -11.96709
H         86.97819      -20.58506       -7.45816
H         86.47813      -20.26658      -11.72196
H         84.83155      -20.91303       -8.60694
N         89.22138      -16.55369       -9.56335
C         88.70106      -15.62965       -8.56352
C         87.63060      -16.32385       -7.74265
O         86.57667      -16.61333       -8.29339
C         88.09417      -14.38066       -9.23227
C         89.10197      -13.59508      -10.07504
C         88.42866      -12.42017      -10.72703
O         88.83803      -11.16754      -10.45250
O         87.50844      -12.59529      -11.51106
H         88.60012      -16.83816      -10.33703
H         89.51877      -15.29556       -7.90696
H         87.68470      -13.71005       -8.44353
H         87.25336      -14.70021       -9.88915
H         89.52747      -14.24357      -10.87057
H         89.92795      -13.24059       -9.42184
N         87.79730      -16.68019       -6.43550
C         89.04272      -16.56062       -5.67880
C         89.34660      -15.12542       -5.29916
O         88.53237      -14.49294       -4.64049
C         88.99095      -17.43276       -4.40800
C         88.80179      -18.91269       -4.77623
C         88.91367      -19.79948       -3.58204
O         88.14176      -19.70587       -2.64266
O         89.88523      -20.72199       -3.58669
H         87.00333      -17.16410       -5.98821
H         89.87474      -16.97737       -6.28629
H         88.17452      -17.10045       -3.72996
H         89.96208      -17.32518       -3.87241
H         89.60382      -19.20252       -5.49083
H         87.82289      -19.09316       -5.26331
N         90.53257      -14.55759       -5.65795
C         90.88631      -13.20373       -5.29345
H         91.89678      -12.95918       -5.68638
H         90.15398      -12.48948       -5.72443
H         90.90427      -13.10123       -4.18748
H         91.21849      -15.10611       -6.19883
Ca        90.64082      -22.14539       -2.03836
O         90.03944      -25.62147       -1.32653
H         91.00605      -25.79885       -1.44727
H         89.61729      -25.97681       -2.14870
O         87.75575      -23.34916       -3.12573
H         87.63434      -23.39504       -4.10726
H         86.87492      -23.60718       -2.75447
O         90.68038      -23.31889        1.09659
H         90.72601      -22.47078        1.60562
H         90.93692      -24.01620        1.75110
O         88.48881      -20.63989        0.13639
H         87.73361      -20.46840        0.75303
H         88.80982      -19.73861       -0.11794
O         87.79303      -23.66200        0.03153
H         87.49440      -24.60434       -0.02234
H         86.96323      -23.13188       -0.07239

Ca 1.0



