%chk=apoCaM-CA-Ng.loop2.water4.frame1342.chk
%nprocshared=20
%mem=10GB
%nosave
#b3lyp/svp scf=(tight,noincore,xqc) Test 
#IOP(5/87=12) Density=Current Pop=(MK,readradii) iop(6/33=2) iop(6/42=6)

apoCaM-CA-Ng.loop2.water4.frame1342 

   -2  1 
C         42.36392       36.50262       99.94106
C         42.12876       37.59346       98.92351
O         42.07666       38.73613       99.35506
H         43.32198       36.70479      100.46426
H         41.54289       36.53091      100.68755
H         42.41740       35.47169       99.56186
N         41.97145       37.40404       97.57718
C         42.00370       36.12752       96.85709
C         40.67196       35.79472       96.17907
O         40.49594       34.63604       95.82720
C         43.17421       36.10412       95.83695
C         43.06238       37.16087       94.76475
O         43.96733       37.27706       93.78107
O         42.12452       37.93516       94.75422
H         41.82443       38.26357       97.03121
H         42.18469       35.29676       97.55338
H         43.20515       35.10745       95.34379
H         44.13242       36.24982       96.37905
N         39.70294       36.73222       95.93602
C         38.39498       36.40025       95.37447
C         38.20503       36.87585       93.93359
O         37.14384       36.60358       93.38887
C         37.31222       36.99164       96.28793
H         39.87794       37.72152       96.15981
H         38.25462       35.29772       95.35233
H         37.39635       38.10049       96.31798
H         36.29636       36.72322       95.92872
H         37.43054       36.60310       97.32235
N         39.16584       37.56280       93.24266
C         39.00593       38.01214       91.85582
C         40.10191       37.45092       90.94833
O         41.00359       36.77480       91.42524
C         38.96820       39.55670       91.82742
C         40.26779       40.16182       92.28730
O         40.32496       40.77165       93.34315
O         41.37889       40.00647       91.54055
H         40.03970       37.80331       93.71568
H         38.03505       37.65148       91.45218
H         38.14202       39.88047       92.49908
H         38.73751       39.93147       90.80797
N         40.05231       37.67613       89.60212
C         41.01743       37.13961       88.65031
C         42.35975       37.84748       88.65220
O         42.56479       38.79670       89.39193
H         39.24254       38.18613       89.21969
H         40.60841       37.25924       87.62471
H         41.15081       36.05104       88.83607
N         43.33710       37.40475       87.81109
C         44.67769       37.98446       87.74017
C         44.65154       39.33909       87.05244
O         44.24508       39.39961       85.89955
C         45.64068       37.06874       86.94438
C         45.80632       35.69980       87.56794
N         47.00772       35.29651       88.04143
O         44.85303       34.93860       87.63378
H         43.11859       36.58627       87.22402
H         45.09567       38.07292       88.76695
H         46.63324       37.57093       86.90553
H         45.28714       36.94322       85.89698
H         47.83070       35.91432       87.99969
H         47.11368       34.35930       88.45747
N         45.11292       40.46096       87.67970
C         45.22234       41.75491       87.01313
C         44.30067       42.78601       87.62308
O         43.58333       42.45837       88.55597
H         45.43027       40.39578       88.65855
H         44.95891       41.66852       85.93928
H         46.27649       42.10063       87.08054
N         44.20141       44.06000       87.13936
C         44.95902       44.60279       86.01102
C         45.76172       45.85125       86.39062
O         46.44951       46.37134       85.52344
C         43.98864       44.89434       84.83948
C         43.40719       43.59654       84.26778
O         42.93249       45.72038       85.26376
H         43.50255       44.67873       87.58124
H         45.71004       43.87423       85.64224
H         44.54544       45.36998       83.99711
H         43.16322       46.65214       85.01522
H         42.72633       43.82488       83.42106
H         44.22699       42.94980       83.88569
H         42.83765       43.03545       85.03833
N         45.75845       46.36951       87.65573
C         46.56037       47.51867       88.07968
C         47.50220       47.03652       89.17786
O         47.01240       46.42779       90.11922
C         45.63257       48.65224       88.60809
C         44.61913       49.13977       87.53715
C         46.44171       49.83930       89.17332
C         45.23826       49.82388       86.31137
H         45.18102       45.92402       88.38176
H         47.13958       47.92188       87.23115
H         45.03387       48.23726       89.44961
H         43.92276       49.86426       88.01283
H         44.01043       48.27790       87.18970
H         45.75632       50.62036       89.56441
H         47.08827       49.51405       90.01491
H         47.09516       50.29236       88.40033
H         45.79062       50.74146       86.60027
H         45.91854       49.14226       85.76363
H         44.42817       50.12842       85.61606
N         48.85328       47.23786       89.17515
C         49.59564       48.07388       88.23058
C         50.71970       48.82706       88.93743
O         51.00105       48.54078       90.09444
C         50.10843       47.23380       87.04030
C         50.94203       46.05103       87.46218
O         50.45043       45.15802       88.13499
O         52.22344       45.94887       87.06307
H         49.37556       46.82327       89.96341
H         48.93779       48.87867       87.84974
H         50.70182       47.88362       86.36120
H         49.24210       46.84756       86.46237
N         51.37801       49.84851       88.30888
C         52.45007       50.61140       88.95014
C         52.03804       52.06082       89.17731
O         51.18832       52.53853       88.43496
C         53.74997       50.48726       88.11914
C         53.68259       51.11353       86.73770
C         53.62477       50.29914       85.59219
C         53.70866       52.51283       86.57506
C         53.57951       50.87158       84.31608
C         53.67135       53.08011       85.29672
C         53.60411       52.26033       84.16835
H         51.09545       50.10672       87.35031
H         52.66214       50.15810       89.92883
H         53.95437       49.39829       88.02395
H         54.61626       50.92548       88.65707
H         53.60681       49.22082       85.68498
H         53.77481       53.16881       87.43289
H         53.52852       50.23791       83.44006
H         53.69922       54.15633       85.17996
H         53.57539       52.70102       83.17959
N         52.60975       52.86172       90.13625
C         53.59034       52.46823       91.14560
C         53.11148       51.35386       92.05728
O         53.83015       50.37533       92.21184
C         53.80648       53.74733       91.96791
C         53.58960       54.81916       90.92808
C         52.35338       54.28648       90.20972
H         54.53755       52.19138       90.63352
H         52.98852       53.87628       92.71311
H         54.77745       53.78361       92.50733
H         53.49009       55.85169       91.32390
H         54.45241       54.78621       90.22211
H         51.42429       54.45659       90.79767
H         52.28454       54.77291       89.21216
N         51.88949       51.41323       92.66667
C         51.40001       50.33433       93.51728
C         52.20983       50.29695       94.80992
O         52.16883       51.29121       95.52208
C         49.90359       50.49645       93.87281
C         48.99450       50.45349       92.63291
C         47.54714       50.41312       93.03299
O         46.78364       51.29795       92.68199
O         47.07941       49.38133       93.76288
H         51.28254       52.22700       92.48429
H         51.45534       49.40000       92.93708
H         49.72507       51.43998       94.43576
H         49.62959       49.64155       94.53189
H         49.20472       49.53864       92.03944
H         49.18707       51.34091       91.99248
N         52.96153       49.23593       95.23306
C         53.16683       47.97680       94.54273
H         54.25491       47.83087       94.38004
H         52.78881       47.14772       95.17612
H         52.67995       47.89989       93.56026
H         53.44289       49.32735       96.14156
Ca        43.06791       38.69627       92.27804
O         44.06813       40.73130       94.43497
H         43.41582       41.43368       94.68279
H         44.73034       41.19736       93.86522
O         43.78166       41.44873       91.33543
H         43.16490       42.22299       91.33957
H         44.57987       41.76247       90.84303
O         44.77385       36.53013       90.87784
H         44.16366       35.77166       90.69883
H         45.41207       36.18669       91.55202
O         46.06055       39.38905       91.71179
H         46.69484       38.63192       91.64991
H         46.35788       40.01824       91.00796

Ca 1.0



