%chk=apoCaM-CA-Ng.loop4.water7.frame1046.chk
%nprocshared=20
%mem=10GB
%nosave
#b3lyp/svp scf=(tight,noincore,xqc) Test 
#IOP(5/87=12) Density=Current Pop=(MK,readradii) iop(6/33=2) iop(6/42=6)

apoCaM-CA-Ng.loop4.water7.frame1046 

   -3  1 
C         54.70073       67.85138       59.07328
C         55.49700       67.09964       58.03978
O         54.89650       66.37754       57.25788
H         53.61946       67.61486       58.97905
H         55.03198       67.56181       60.09258
H         54.81686       68.94406       58.93698
N         56.85714       67.17439       57.96060
C         57.68635       67.98007       58.85126
C         57.42381       69.45779       58.64424
O         57.04756       70.12924       59.59498
C         59.18978       67.70120       58.61891
C         59.54325       66.26569       58.88874
O         59.34498       65.73832       60.11195
O         60.02383       65.57488       58.00430
H         57.32296       66.59668       57.24316
H         57.46160       67.70488       59.90657
H         59.79460       68.33764       59.30128
H         59.47146       67.95657       57.57605
N         57.64618       70.03541       57.42830
C         57.51927       71.46739       57.17990
C         58.92766       72.02302       57.05932
O         59.27696       72.89112       57.84778
C         56.48072       71.77282       56.04187
C         56.82697       71.29642       54.60497
C         55.12994       71.14700       56.44867
C         57.73378       72.24934       53.82213
H         57.97790       69.43870       56.65809
H         57.08813       71.96722       58.07772
H         56.30566       72.87117       56.00005
H         55.89451       71.27824       53.99775
H         57.22044       70.26319       54.62174
H         54.81114       71.51813       57.44604
H         54.33602       71.42545       55.72261
H         55.19572       70.03814       56.48191
H         58.71485       72.40481       54.27911
H         57.89437       71.84490       52.80005
H         57.24675       73.24322       53.73072
N         59.83296       71.47580       56.19620
C         61.25855       71.80513       56.20252
C         62.03669       70.50974       56.46319
O         61.43309       69.44427       56.41877
C         61.61555       72.44002       54.83698
C         62.93959       73.15518       54.73719
O         63.70824       73.38604       55.81598
O         63.27973       73.62066       53.66170
H         59.51577       70.74292       55.54343
H         61.46660       72.53448       57.01489
H         60.85930       73.21815       54.59989
H         61.55084       71.65023       54.05641
N         63.36712       70.49734       56.76225
C         64.09105       69.25447       56.97544
C         64.26727       68.43357       55.70732
O         64.74339       67.31476       55.82522
H         63.87994       71.37343       56.89681
H         63.55144       68.65844       57.74450
H         65.10619       69.47276       57.37211
N         63.93708       68.91684       54.46884
C         64.11117       68.16873       53.21926
C         63.56845       68.98678       52.03969
O         63.92626       70.15262       51.94558
C         65.58855       67.76932       52.96998
C         66.57186       68.90941       52.93274
O         66.51775       69.75643       52.05676
O         67.56324       68.96415       53.84190
H         63.54522       69.86631       54.40315
H         63.54870       67.22698       53.32775
H         65.65038       67.21085       52.01453
H         65.91372       67.06633       53.76166
N         62.68027       68.52346       51.10884
C         62.15079       67.17358       50.98832
C         62.20389       66.68835       49.54461
O         61.77347       67.45194       48.69192
H         62.32421       69.21300       50.42753
H         61.07550       67.23125       51.25486
H         62.63078       66.47432       51.66986
N         62.59693       65.43568       49.13849
C         63.03432       64.30723       49.96152
C         62.10986       64.10418       51.13995
O         62.54693       64.12725       52.28298
C         64.52828       64.40466       50.32671
C         65.39995       64.42467       49.05583
C         66.86566       64.27341       49.37042
N         67.51838       65.18732       50.12265
O         67.47508       63.30892       48.93125
H         62.48487       65.22697       48.13312
H         62.94529       63.38402       49.34391
H         64.79039       63.49250       50.90835
H         64.72882       65.29579       50.95465
H         65.23265       65.36726       48.49162
H         65.10235       63.57413       48.40164
H         67.02818       66.01104       50.49541
H         68.52153       65.06977       50.32916
N         60.78225       63.94215       50.90670
C         59.77328       63.93509       51.95647
C         58.79882       65.07837       51.70611
O         58.94218       65.79653       50.72573
C         59.08110       62.54696       52.05368
C         60.08415       61.48336       52.52263
C         58.42875       62.10380       50.73812
H         60.46288       63.88448       49.92719
H         60.23395       64.13988       52.94857
H         58.28768       62.60056       52.82942
H         59.57431       60.50562       52.65503
H         60.90780       61.36038       51.78772
H         60.52158       61.77611       53.50170
H         59.18601       61.95552       49.94088
H         57.89104       61.14346       50.88764
H         57.69957       62.85834       50.39334
N         57.77892       65.31061       52.57407
C         56.83143       66.40885       52.42708
C         55.44296       65.87155       52.10676
O         54.47786       66.61645       52.21687
C         56.85473       67.24581       53.72235
C         58.24934       67.74635       54.02960
N         58.89927       68.57727       53.18033
O         58.79943       67.39110       55.06028
H         57.65649       64.68400       53.38330
H         57.10333       67.08391       51.58683
H         56.49701       66.61613       54.56730
H         56.17140       68.11779       53.62930
H         58.45668       68.89577       52.30677
H         59.85098       68.90820       53.40026
N         55.28294       64.60771       51.61151
C         54.00463       64.01155       51.25799
C         53.85503       62.71503       52.02432
O         54.71963       61.85385       51.93398
C         53.88190       63.85913       49.72148
C         54.93781       63.01760       49.03428
C         54.94184       61.61535       49.14254
C         55.91661       63.63887       48.23844
C         55.91957       60.85526       48.49556
C         56.89196       62.87696       47.58887
C         56.89900       61.48135       47.71977
O         57.83639       60.73402       47.10358
H         56.11307       64.02619       51.44550
H         53.17202       64.69249       51.54346
H         53.93605       64.89515       49.31945
H         52.87694       63.46893       49.45071
H         54.18333       61.10139       49.71674
H         55.93143       64.71561       48.12497
H         55.91257       59.77708       48.59540
H         57.64180       63.37314       46.98630
H         58.53144       61.12881       46.55812
N         52.81253       62.54162       52.87463
C         52.67766       61.36219       53.71775
C         51.74134       61.72999       54.84208
O         50.55994       61.94842       54.60631
C         52.23068       60.13973       52.89069
C         52.18994       58.84783       53.71631
C         51.81344       57.67717       52.85182
O         52.51460       57.36152       51.90285
O         50.70565       56.96262       53.12572
H         52.14673       63.32332       52.99008
H         53.67767       61.15111       54.15990
H         52.95399       59.99328       52.05959
H         51.23084       60.33592       52.44424
H         51.45125       58.95242       54.53948
H         53.19074       58.65269       54.15904
N         52.27136       62.00282       56.06575
C         51.54120       62.70967       57.10886
C         51.10715       64.05094       56.54101
O         49.92076       64.34667       56.55257
C         52.44642       62.92097       58.34425
C         52.81116       61.58212       59.00626
C         53.78248       61.77283       60.13324
O         53.45960       62.53135       61.19575
O         54.87268       61.22473       60.09704
H         53.27720       61.82477       56.21042
H         50.64610       62.12691       57.42334
H         51.91776       63.55333       59.09156
H         53.37489       63.45187       58.03544
H         53.27356       60.89773       58.26429
H         51.88933       61.09761       59.39375
N         52.02528       64.87578       55.95658
C         51.68612       66.12007       55.29662
H         50.59984       66.34289       55.34283
H         52.24418       66.95473       55.76804
H         51.98021       66.05353       54.22643
H         53.01616       64.59156       55.93548
Ca        54.93790       62.67547       62.89623
O         53.17020       63.18195       65.28415
H         52.63451       62.61547       65.89419
H         53.65468       63.80490       65.88202
O         51.34353       61.35620       62.91811
H         51.11935       62.27908       62.63769
H         51.28180       61.37546       63.90590
O         58.03934       62.23714       62.95985
H         58.46045       62.46050       63.82760
H         58.67068       62.58117       62.27920
O         56.49907       59.66671       62.35047
H         56.83495       59.34823       61.47524
H         56.85526       59.01567       63.00593
O         55.84977       60.99249       65.51443
H         55.97563       61.87210       65.95152
H         56.71694       60.52959       65.63365
O         53.59052       59.12295       63.57749
H         52.84769       58.69617       64.07396
H         54.10776       58.36451       63.20649
O         56.02649       65.48055       63.37933
H         56.61707       65.19012       62.63931
H         55.16792       65.70283       62.93860

Ca 1.0



