%chk=apoCaM-CA-Ng.loop2.water2.frame945.chk
%nprocshared=20
%mem=10GB
%nosave
#b3lyp/svp scf=(tight,noincore,xqc) Test 
#IOP(5/87=12) Density=Current Pop=(MK,readradii) iop(6/33=2) iop(6/42=6)

apoCaM-CA-Ng.loop2.water2.frame945 

   -2  1 
C         78.54618      102.07797       57.59462
C         77.44027      101.06512       57.63450
O         77.64085       99.94027       57.19789
H         79.46539      101.64227       57.14782
H         78.23270      102.95378       56.98938
H         78.77907      102.41305       58.62767
N         76.22906      101.40059       58.16297
C         75.10541      100.46819       58.24328
C         75.36324       99.30365       59.21177
O         74.51592       98.42524       59.29237
C         73.82989      101.23996       58.65638
C         72.58745      100.39270       58.60307
O         72.23170       99.88652       57.55039
O         71.86022      100.19060       59.71823
H         76.09832      102.37181       58.48844
H         74.93578      100.06074       57.22077
H         73.67880      102.09470       57.96102
H         73.96384      101.64666       59.68257
N         76.50634       99.20709       59.95538
C         76.79461       98.10092       60.86111
C         77.29340       98.66049       62.18825
O         78.28376       99.37903       62.15882
C         77.87143       97.22237       60.22552
H         77.23698       99.92407       59.86438
H         75.90440       97.45571       60.98830
H         78.10803       96.36327       60.88714
H         77.49689       96.82774       59.25582
H         78.79746       97.80483       60.03253
N         76.70139       98.43619       63.39853
C         75.53424       97.58809       63.63843
C         74.79708       98.00120       64.91307
O         75.25120       98.89720       65.60964
C         75.94195       96.09517       63.63598
C         76.98997       95.76148       64.66606
O         78.09346       96.28253       64.62013
O         76.73095       94.84468       65.61552
H         77.12827       98.91895       64.20420
H         74.78665       97.77766       62.84042
H         76.35052       95.82005       62.64238
H         75.04432       95.46509       63.81061
N         73.57942       97.45889       65.21366
C         72.73312       97.96475       66.28746
C         72.14541       96.87488       67.16009
O         70.93540       96.70600       67.11046
H         73.17979       96.74871       64.58195
H         71.88361       98.48594       65.79440
H         73.24221       98.72002       66.92085
N         72.86782       96.10617       68.02313
C         74.30348       96.19451       68.22809
C         74.58961       97.21473       69.32269
O         74.22611       96.98668       70.46837
C         74.80715       94.77665       68.58304
C         76.29083       94.58277       68.67705
N         76.76528       93.35385       68.98456
O         77.06428       95.50072       68.45731
H         72.34478       95.42075       68.59298
H         74.79002       96.49363       67.27808
H         74.45447       94.07894       67.79185
H         74.35192       94.46154       69.54770
H         76.11945       92.57118       69.16390
H         77.77150       93.17021       69.03936
N         75.18819       98.40136       69.01783
C         75.43417       99.46413       69.98311
C         76.66011       99.23881       70.84427
O         76.99700      100.13114       71.60928
H         75.41662       98.59934       68.03630
H         74.52544       99.65059       70.59537
H         75.64556      100.39510       69.41264
N         77.40462       98.10425       70.74395
C         78.67160       97.88840       71.42800
C         79.74822       97.65154       70.34357
O         79.37462       96.48547       69.66032
C         78.55776       96.68131       72.40505
C         77.60767       96.97207       73.56219
O         78.09201       95.53358       71.73609
H         77.08833       97.35636       70.11784
H         78.97149       98.78610       72.01312
H         79.55875       96.49319       72.86329
H         78.84344       94.88886       71.68340
H         77.57545       96.09155       74.23974
H         77.96475       97.84964       74.14053
H         76.58135       97.16826       73.18712
N         81.08377       97.49103       70.94023
C         82.20545       97.54569       69.97753
C         82.95183       96.24765       70.19535
O         83.38238       96.01211       71.31558
C         83.11493       98.80558       70.16890
C         84.18508       98.85760       69.04115
C         82.27246      100.10110       70.16858
C         85.20929       99.98700       69.18824
H         81.25038       98.06399       71.79933
H         81.81713       97.58809       68.94166
H         83.62175       98.73092       71.15651
H         83.68073       98.97355       68.05909
H         84.75325       97.90377       69.02348
H         82.90397      100.99036       70.36422
H         81.74704      100.23255       69.19953
H         81.51749      100.09735       70.97962
H         85.76220       99.88283       70.14482
H         85.93598       99.93360       68.34953
H         84.73456      100.98759       69.14170
N         83.03066       95.30540       69.21115
C         83.38866       93.91654       69.50189
C         84.61280       93.41385       68.77878
O         84.95475       92.25824       69.01499
C         82.18414       93.02698       69.14865
C         80.98178       93.43117       69.94153
O         80.99584       93.36143       71.28611
O         79.99124       93.84053       69.36765
H         82.69651       95.53214       68.26334
H         83.60582       93.78634       70.58409
H         82.39718       91.95976       69.37041
H         81.96590       93.12018       68.05948
N         85.33105       94.15973       67.89602
C         86.51060       93.60898       67.24204
C         87.02553       94.53796       66.15178
O         87.41290       95.65786       66.47344
C         87.65142       93.36989       68.26589
C         88.84299       92.73587       67.59182
C         89.91227       93.53364       67.15228
C         88.87836       91.34977       67.36442
C         90.99446       92.95580       66.48519
C         89.97219       90.77284       66.71102
C         91.02642       91.57624       66.26683
H         85.01967       95.11605       67.66028
H         86.22507       92.63035       66.80405
H         87.34909       92.73000       69.12097
H         87.93698       94.34978       68.70810
H         89.89604       94.60536       67.30560
H         88.06356       90.71814       67.69701
H         91.80571       93.57975       66.13403
H         90.00043       89.70396       66.54331
H         91.86713       91.13100       65.75132
N         87.13508       94.13841       64.84882
C         87.81705       94.90839       63.82360
C         87.00981       96.08339       63.29790
O         87.52265       96.78204       62.43611
C         88.09468       93.86357       62.73715
C         86.86656       92.98452       62.83257
C         86.70818       92.84588       64.34246
H         88.79532       95.29109       64.19398
H         88.32859       94.26987       61.73061
H         88.95636       93.23766       63.06787
H         86.00614       93.57268       62.43834
H         86.91594       92.01775       62.28891
H         85.64483       92.61867       64.57363
H         87.37835       92.06320       64.76100
N         85.75606       96.37585       63.75264
C         84.99593       97.51493       63.23955
C         85.63753       98.86232       63.57007
O         85.15147       99.86483       63.06361
C         83.54729       97.49386       63.77535
C         83.49328       97.73874       65.28864
C         82.10093       97.68701       65.80848
O         81.40073       96.54623       65.72986
O         81.63900       98.63787       66.41869
H         85.31617       95.75198       64.44133
H         84.94485       97.40368       62.13396
H         83.08642       96.51106       63.52982
H         82.95363       98.28541       63.26707
H         83.92836       98.73129       65.53272
H         84.07409       96.96666       65.83452
N         86.68466       98.97659       64.44095
C         87.28033      100.24450       64.81091
H         88.35684      100.23716       64.54232
H         86.79664      101.10674       64.30630
H         87.18481      100.38622       65.90835
H         87.07692       98.14161       64.89695
Ca        80.24700       96.24454       67.59972
O         78.57724       98.56520       66.59427
H         78.85447       99.47075       66.30611
H         77.63970       98.67343       66.89046
O         79.91390       93.65609       65.64684
H         79.69879       92.77212       66.03753
H         80.83244       93.55411       65.29121

Ca 1.0



