%chk=apoCaM-CA-Ng.loop4.water3.frame180.chk
%nprocshared=20
%mem=10GB
%nosave
#b3lyp/svp scf=(tight,noincore,xqc) Test 
#IOP(5/87=12) Density=Current Pop=(MK,readradii) iop(6/33=2) iop(6/42=6)

apoCaM-CA-Ng.loop4.water3.frame180 

   -3  1 
C        -14.21198       49.24575       38.45809
C        -15.06279       49.07050       39.71833
O        -15.88493       50.18934       39.84362
H        -13.55994       48.36021       38.30414
H        -14.86988       49.35480       37.57086
H        -13.57544       50.15246       38.55210
N        -14.22451       48.91203       40.92468
C        -14.78200       47.99490       41.94890
C        -15.63560       46.86250       41.37897
O        -16.80845       47.07539       41.12243
C        -15.42059       48.72092       43.16210
C        -16.54618       49.67295       42.87026
O        -17.67228       49.43794       43.27845
O        -16.29297       50.85553       42.28032
H        -13.31333       48.48608       40.62897
H        -13.90936       47.48654       42.42237
H        -14.64134       49.30676       43.69544
H        -15.78019       47.94212       43.86682
N        -15.06531       45.64222       41.12491
C        -15.73203       44.43762       40.61656
C        -16.50326       43.73308       41.72550
O        -16.12726       42.61646       42.05845
C        -16.55095       44.67163       39.31148
C        -17.22597       43.37727       38.77725
C        -15.66368       45.30689       38.22413
C        -16.26825       42.24792       38.37914
H        -14.04929       45.55529       41.28116
H        -14.91371       43.73319       40.34375
H        -17.38432       45.37062       39.52477
H        -17.83391       43.64091       37.88482
H        -17.92662       42.98489       39.54541
H        -16.24672       45.46786       37.29399
H        -15.27787       46.29089       38.55928
H        -14.79090       44.66441       37.98709
H        -16.85827       41.38497       38.00477
H        -15.58570       42.56684       37.56571
H        -15.67198       41.89915       39.24601
N        -17.54925       44.31235       42.37957
C        -18.20004       43.66680       43.51355
C        -18.98852       42.42809       43.07384
O        -18.60684       41.35047       43.50886
C        -19.00786       44.68749       44.35108
C        -18.13476       45.75151       44.97329
O        -18.64578       46.62208       45.65886
O        -16.79865       45.75585       44.79376
H        -17.84751       45.25855       42.12146
H        -17.40466       43.31206       44.21121
H        -19.52528       44.15190       45.17589
H        -19.75139       45.21947       43.73834
N        -20.06377       42.43121       42.22584
C        -20.65957       43.62796       41.65161
C        -21.86339       43.35705       40.75909
O        -22.22028       42.20060       40.58355
H        -20.47428       41.51200       42.00184
H        -19.88616       44.16405       41.06985
H        -21.04261       44.21826       42.48329
N        -22.57700       44.35012       40.13537
C        -22.32435       45.79540       40.16372
C        -20.94356       46.09291       39.59805
O        -20.10298       46.61925       40.31446
C        -22.57122       46.41949       41.55791
C        -23.92610       46.05337       42.09609
O        -24.93698       46.34982       41.47918
O        -24.02934       45.39439       43.26611
H        -23.37320       44.04926       39.55069
H        -23.07205       46.29276       39.50737
H        -22.51146       47.52404       41.47061
H        -21.80125       46.13030       42.28931
N        -20.59044       45.73680       38.32927
C        -21.50354       45.21151       37.32695
C        -21.32226       43.73493       37.11966
O        -20.54996       43.10473       37.82898
H        -19.60837       45.86033       38.04130
H        -21.33002       45.76327       36.37767
H        -22.56472       45.36964       37.59441
N        -22.03268       43.11573       36.13735
C        -21.95311       41.68621       35.86998
C        -21.08551       41.38999       34.65658
O        -20.83914       40.21863       34.40275
C        -23.36324       41.04486       35.85427
C        -24.39616       41.65088       34.88308
C        -24.01475       41.52741       33.43578
N        -23.83179       40.31170       32.87269
O        -23.89472       42.53575       32.75714
H        -22.61582       43.70112       35.52098
H        -21.40745       41.18330       36.69928
H        -23.78947       41.16270       36.87489
H        -23.26543       39.95339       35.66937
H        -24.57278       42.71656       35.14013
H        -25.36350       41.12290       35.02659
H        -23.94705       39.45012       33.42464
H        -23.58325       40.22911       31.87857
N        -20.48229       42.38985       33.94421
C        -19.40092       42.15105       32.99180
C        -19.70474       42.65164       31.58867
O        -18.83122       42.51263       30.74324
C        -18.09091       42.81857       33.52133
C        -17.69371       42.26114       34.89693
C        -18.18138       44.35445       33.59877
H        -20.71310       43.36990       34.15214
H        -19.19873       41.06131       32.89805
H        -17.26734       42.57077       32.81527
H        -17.56525       41.15997       34.84466
H        -16.73069       42.70760       35.22590
H        -18.46412       42.49777       35.66161
H        -18.42054       44.79129       32.60652
H        -18.94677       44.68904       34.32838
H        -17.20198       44.76430       33.92223
N        -20.88690       43.24875       31.25566
C        -21.13239       43.80656       29.92751
C        -21.41058       45.30138       29.97004
O        -21.44145       45.89157       28.89769
C        -22.32126       43.09292       29.25131
C        -22.07758       41.62034       29.04292
N        -21.06344       41.18761       28.25857
O        -22.82008       40.80719       29.56945
H        -21.63297       43.31671       31.95819
H        -20.23286       43.68474       29.28712
H        -22.51758       43.54490       28.25468
H        -23.23046       43.23796       29.87742
H        -20.43556       41.85515       27.78878
H        -20.91181       40.17859       28.11180
N        -21.69162       45.97729       31.12665
C        -22.09337       47.38053       31.12702
C        -21.42360       48.17727       32.22709
O        -21.07211       47.62018       33.25787
C        -23.61858       47.46156       31.34262
C        -24.37405       46.78815       30.22213
C        -24.30595       47.30265       28.91601
C        -25.15035       45.64334       30.46828
C        -24.99815       46.68114       27.87410
C        -25.84026       45.02108       29.42290
C        -25.76751       45.53636       28.12418
O        -26.43979       44.92633       27.12743
H        -21.75079       45.46966       32.01960
H        -21.84892       47.86206       30.15548
H        -23.95092       48.52152       31.39782
H        -23.86078       46.98155       32.31780
H        -23.71801       48.18684       28.70404
H        -25.21692       45.22685       31.46565
H        -24.93513       47.09078       26.87381
H        -26.43186       44.13667       29.62278
H        -26.41695       45.25350       26.21667
N        -21.32316       49.53284       32.08660
C        -20.95572       50.49765       33.12206
C        -19.58533       50.31876       33.77126
O        -19.27422       51.12335       34.63898
C        -22.11609       50.70878       34.13396
C        -22.50821       49.52004       35.02143
C        -23.63481       49.90060       35.94223
O        -24.70759       50.26168       35.48349
O        -23.47646       49.82840       37.27661
H        -21.60291       49.93820       31.17960
H        -20.89107       51.48986       32.61932
H        -23.01379       51.01596       33.55130
H        -21.84640       51.56200       34.79572
H        -21.62879       49.19315       35.61528
H        -22.87767       48.67811       34.40714
N        -18.68752       49.36374       33.38387
C        -17.35511       49.23936       33.97441
C        -16.25375       49.49192       32.95391
O        -15.09438       49.47119       33.34716
C        -17.17915       47.82751       34.57008
C        -18.19554       47.45584       35.66186
C        -18.02116       48.25635       36.92004
O        -17.68221       47.63101       38.05993
O        -18.20034       49.46256       36.92881
H        -18.92857       48.70825       32.62955
H        -17.20211       49.99514       34.77143
H        -16.15592       47.71168       34.99343
H        -17.28619       47.10216       33.73691
H        -18.03399       46.38676       35.91629
H        -19.23515       47.55725       35.28749
N        -16.51257       49.73720       31.63726
C        -15.44874       49.96710       30.68442
H        -14.77060       49.08740       30.65350
H        -15.87469       50.12239       29.67071
H        -14.87122       50.87098       30.97247
H        -17.47771       49.75742       31.28122
Ca       -18.02803       49.44504       40.13224
O        -20.63468       49.70728       38.55158
H        -20.87687       48.95513       37.95534
H        -21.04156       50.50625       38.13208
O        -18.41053       52.37292       40.07459
H        -18.76884       52.77871       39.24589
H        -17.43612       52.54432       40.03445
O        -20.87241       49.77062       41.59133
H        -21.21495       49.61957       42.50768
H        -21.68594       49.82340       41.02927

Ca 1.0



