%chk=apoCaM-CA-Ng.loop3.water5.frame3.chk
%nprocshared=20
%mem=10GB
%nosave
#b3lyp/svp scf=(tight,noincore,xqc) Test 
#IOP(5/87=12) Density=Current Pop=(MK,readradii) iop(6/33=2) iop(6/42=6)

apoCaM-CA-Ng.loop3.water5.frame3 

   0  1 
C         59.61118       43.16888      111.49217
C         60.62790       43.63975      112.48903
O         61.07758       42.85383      113.31023
H         58.67602       43.75696      111.60877
H         60.00448       43.31650      110.46424
H         59.37857       42.09312      111.63785
N         61.02492       44.94153      112.47319
C         61.99542       45.53012      113.38845
C         61.53261       45.40862      114.82844
O         62.29351       44.97400      115.68223
C         63.40572       44.94394      113.17050
C         63.88166       45.16661      111.76328
O         64.00645       46.41847      111.28217
O         64.16687       44.21582      111.05329
H         60.59903       45.57078      111.77462
H         62.04493       46.62040      113.16793
H         63.41002       43.85703      113.40232
H         64.11689       45.44158      113.86192
N         60.27247       45.80288      115.16115
C         59.75388       45.81015      116.52751
C         59.87317       44.41492      117.13023
O         59.15752       43.51821      116.70860
C         58.31185       46.36421      116.47360
C         57.62031       46.67173      117.80501
C         56.30249       47.41174      117.49419
C         55.54162       47.85284      118.74639
N         54.36311       48.64050      118.37435
H         59.66526       46.13736      114.39578
H         60.38326       46.51967      117.10862
H         57.67170       45.67857      115.87349
H         58.38203       47.33078      115.92479
H         58.27203       47.33932      118.40899
H         57.42968       45.73536      118.37248
H         55.64265       46.76377      116.87505
H         56.54311       48.32677      116.90756
H         56.20561       48.47836      119.38274
H         55.22780       46.95838      119.32730
H         54.65654       49.50317      117.85871
H         53.72291       48.07670      117.76890
H         53.84993       48.92819      119.23809
N         60.86751       44.15402      118.03776
C         61.23571       42.81540      118.51618
C         62.43578       42.93551      119.45894
O         63.45093       43.47130      119.03568
C         61.64620       41.91310      117.31787
C         61.93388       40.48227      117.68791
O         62.31437       39.70967      116.82370
O         61.74216       40.02745      118.94070
H         61.44325       44.95187      118.35006
H         60.36450       42.36513      119.04047
H         62.54563       42.34878      116.82932
H         60.84459       41.86843      116.55707
N         62.39564       42.48592      120.74729
C         63.51219       42.66763      121.67021
C         64.77116       41.89206      121.31272
O         65.82483       42.24536      121.82370
H         61.52997       42.05764      121.10556
H         63.21635       42.36932      122.69890
H         63.75405       43.75269      121.70304
N         64.74611       40.79444      120.50163
C         65.94714       40.02217      120.16688
C         66.87870       40.76675      119.20479
O         67.94080       40.24273      118.89920
C         65.55110       38.66737      119.53959
C         64.69188       37.84314      120.46895
N         65.16826       37.41116      121.66085
O         63.55539       37.55008      120.13262
H         63.83565       40.46284      120.16073
H         66.50464       39.80778      121.10607
H         66.45995       38.07408      119.29978
H         65.00088       38.85702      118.59106
H         66.13020       37.62834      121.95827
H         64.57672       36.84130      122.28420
N         66.55120       41.98324      118.68268
C         67.38607       42.73906      117.76606
C         67.51873       42.06096      116.42401
O         66.50070       41.73056      115.83880
H         65.66521       42.42551      118.94380
H         68.37394       42.95089      118.22958
H         66.88888       43.71496      117.57692
N         68.74909       41.91391      115.84824
C         69.04433       41.34157      114.53169
C         68.95941       39.82790      114.53670
O         69.99375       39.20782      114.34856
C         68.21776       41.95462      113.37878
C         68.30075       43.46053      113.32114
C         67.13006       44.23085      113.42526
C         69.53437       44.11088      113.14551
C         67.19246       45.62491      113.35525
C         69.59323       45.50674      113.07933
C         68.42011       46.26776      113.18255
O         68.45833       47.61358      113.11468
H         69.55872       42.29280      116.36364
H         70.11346       41.57951      114.32529
H         67.15725       41.64229      113.46529
H         68.59085       41.54353      112.41523
H         66.16743       43.75264      113.55575
H         70.45023       43.54131      113.05649
H         66.28679       46.21019      113.43205
H         70.54971       45.99523      112.94431
H         69.28564       48.09989      112.99178
N         67.77175       39.17089      114.69735
C         67.57995       37.72418      114.79208
C         68.00238       37.22640      116.17594
O         67.13579       36.77069      116.90971
C         68.18621       36.93113      113.59371
C         67.87301       37.57947      112.21451
C         67.70559       35.46692      113.61482
C         66.38606       37.77511      111.90148
H         66.91098       39.72593      114.74517
H         66.47814       37.55906      114.74256
H         69.29273       36.91417      113.68871
H         68.32576       36.95533      111.41293
H         68.35991       38.57532      112.15722
H         66.60128       35.40278      113.52634
H         68.16313       34.89836      112.77737
H         67.99175       34.96641      114.55788
H         65.91397       38.45872      112.63669
H         66.28443       38.23841      110.89715
H         65.84225       36.80982      111.89032
N         69.28554       37.33516      116.63470
C         69.66543       37.01035      118.00697
C         69.66964       35.51690      118.28451
O         69.83685       35.14935      119.44000
C         71.05195       37.59635      118.33178
O         71.07371       38.97997      118.09803
H         70.00759       37.72799      116.02909
H         68.93482       37.50303      118.68740
H         71.82187       37.12098      117.68724
H         71.33448       37.39135      119.38960
H         70.55188       39.40257      118.82891
N         69.48614       34.59636      117.29183
C         69.41298       33.15692      117.50366
C         68.29592       32.84410      118.48280
O         68.51937       32.15800      119.47028
C         70.77758       32.60293      117.94718
H         69.35852       34.91808      116.32489
H         69.16121       32.68111      116.53004
H         70.73207       31.49772      118.04222
H         71.55083       32.85868      117.19171
H         71.09073       33.02651      118.92431
N         67.07199       33.41703      118.29888
C         66.00257       33.33282      119.27996
C         64.67121       33.08024      118.61066
O         64.27903       33.86011      117.75427
C         65.93580       34.65556      120.03963
H         66.94127       34.05057      117.49537
H         66.21065       32.54340      120.03490
H         66.90153       34.84101      120.55713
H         65.74114       35.49674      119.34209
H         65.13013       34.61561      120.80383
N         63.89737       32.02628      118.99816
C         62.54940       31.76633      118.50217
C         62.56886       31.55021      116.99762
O         61.82774       32.20483      116.27365
C         61.58835       32.91551      118.89363
C         61.58400       33.24394      120.39398
C         60.78838       34.49769      120.60474
O         61.41900       35.61798      121.00391
O         59.60102       34.53476      120.32350
H         64.26388       31.38160      119.71433
H         62.18407       30.83184      118.98311
H         60.55312       32.66919      118.56808
H         61.90027       33.83105      118.35050
H         62.62352       33.44467      120.73121
H         61.17460       32.40241      120.99298
N         63.42874       30.65267      116.44944
C         63.49738       30.44013      115.02063
H         64.29734       29.70827      114.78440
H         62.52642       30.04787      114.65098
H         63.72873       31.39770      114.50492
H         64.07072       30.12461      117.05964
Ca        60.42789       37.62924      120.76072
O         57.51832       36.98372      121.12146
H         57.27524       36.31162      120.43636
H         58.15185       36.51089      121.71786
O         61.46881       38.35636      123.37939
H         62.03070       37.57881      123.13324
H         62.09653       39.12150      123.39454
O         59.18639       40.30697      121.03789
H         58.19726       40.28819      121.00237
H         59.39785       40.83826      121.84586
O         58.57949       38.50890      118.39940
H         58.16164       37.63123      118.21072
H         58.88357       38.83546      117.51567
O         61.77932       36.44683      117.94495
H         61.61575       37.29967      117.47242
H         62.67768       36.16326      117.64059

Ca 1.0



