%chk=apoCaM-CA-Ng.loop2.water6.frame1252.chk
%nprocshared=20
%mem=10GB
%nosave
#b3lyp/svp scf=(tight,noincore,xqc) Test 
#IOP(5/87=12) Density=Current Pop=(MK,readradii) iop(6/33=2) iop(6/42=6)

apoCaM-CA-Ng.loop2.water6.frame1252 

   -2  1 
C         38.50974       57.48538       29.34503
C         39.83009       57.45996       28.63295
O         40.69688       56.70196       29.04392
H         37.69327       57.20407       28.64896
H         38.51367       56.76518       30.19162
H         38.33095       58.50243       29.75201
N         40.10311       58.25238       27.55946
C         39.17155       59.18453       26.92997
C         39.67961       60.60990       27.05397
O         40.84456       60.86557       26.78795
C         38.94029       58.79301       25.45568
C         40.20842       58.62032       24.66395
O         40.45951       57.54324       24.14813
O         41.07243       59.63984       24.51551
H         41.04744       58.18093       27.15019
H         38.16873       59.14884       27.40330
H         38.29633       59.55882       24.96891
H         38.38577       57.82898       25.43726
N         38.82815       61.60747       27.43431
C         39.22050       63.00443       27.57974
C         39.67138       63.66108       26.27108
O         40.12505       64.79578       26.33496
C         40.25016       63.15163       28.70973
H         37.84375       61.37300       27.63335
H         38.33074       63.58317       27.91474
H         40.46138       64.22572       28.89860
H         39.82789       62.72305       29.64530
H         41.20490       62.63950       28.48111
N         39.47440       63.07872       25.04431
C         39.74637       63.79244       23.78938
C         39.00142       63.19115       22.59074
O         38.41881       62.12079       22.69623
C         41.26438       63.95593       23.54112
C         41.97771       62.64442       23.38739
O         42.93916       62.29399       24.26320
O         41.71314       61.90591       22.45373
H         39.00594       62.16440       25.00442
H         39.30099       64.80688       23.89721
H         41.71756       64.50316       24.39408
H         41.44178       64.56582       22.62978
N         38.88404       63.91784       21.44046
C         37.99987       63.54439       20.34354
C         38.50187       62.38822       19.51100
O         39.55268       62.52200       18.90006
H         39.33267       64.84574       21.39501
H         37.90268       64.41000       19.65239
H         36.98612       63.34260       20.75205
N         37.77714       61.23267       19.40897
C         38.16434       60.10802       18.55194
C         37.04907       59.64887       17.61058
O         37.31238       58.76412       16.80750
C         38.59372       58.93189       19.43800
C         39.78280       59.32631       20.26508
N         39.69323       59.39315       21.60805
O         40.83578       59.61012       19.71349
H         36.93606       61.13261       19.99689
H         39.02735       60.39416       17.90948
H         38.87702       58.04920       18.82418
H         37.73890       58.64205       20.08846
H         38.81251       59.17831       22.09804
H         40.51268       59.68247       22.15194
N         35.78662       60.16863       17.64510
C         34.71431       59.72404       16.76396
C         35.02964       60.07584       15.32193
O         35.40701       61.21745       15.10046
H         35.54724       60.90044       18.32631
H         33.78889       60.27044       17.04409
H         34.53170       58.64775       16.94037
N         34.92557       59.21406       14.26464
C         34.35096       57.87364       14.28016
C         35.41270       56.84439       13.97168
O         36.08889       56.96085       12.95956
C         33.21874       57.77737       13.21944
C         32.59163       56.36944       13.16458
O         32.22028       58.71563       13.52521
H         35.23901       59.56247       13.34413
H         33.87936       57.63310       15.24956
H         33.65165       58.01010       12.21752
H         31.64170       58.79088       12.72084
H         31.79050       56.33754       12.39594
H         33.34476       55.60310       12.88417
H         32.15371       56.09695       14.14794
N         35.51721       55.74186       14.76472
C         36.30233       54.56380       14.42633
C         35.30939       53.42418       14.21131
O         34.56561       53.13227       15.13822
C         37.31437       54.22194       15.55902
C         38.36087       55.35801       15.68184
C         37.99985       52.86471       15.28177
C         39.37092       55.15479       16.81315
H         34.92111       55.68226       15.60527
H         36.89503       54.73905       13.51004
H         36.75938       54.13017       16.51975
H         37.83257       56.31363       15.87851
H         38.91703       55.46099       14.72383
H         38.67763       52.57446       16.10764
H         37.24985       52.05122       15.22056
H         38.57038       52.89519       14.32978
H         40.05386       56.02888       16.85609
H         38.84655       55.06152       17.78706
H         39.99910       54.25724       16.64199
N         35.23045       52.68899       13.06227
C         36.06975       52.87471       11.88295
C         36.00396       51.63223       11.01985
O         34.91356       51.23316       10.63427
C         35.61264       54.10315       11.06341
C         36.54767       54.45380        9.92907
O         36.29005       55.40832        9.21399
O         37.67637       53.75193        9.70352
H         34.56031       51.90306       13.06436
H         37.12278       53.00608       12.21013
H         35.55003       54.98709       11.71316
H         34.59282       53.92346       10.65959
N         37.14844       50.96965       10.68594
C         37.16596       49.75656        9.87751
C         38.61142       49.29606        9.69752
O         39.41262       50.11518        9.26541
C         36.55847       49.99014        8.46640
C         36.20861       48.66076        7.84772
C         36.93013       48.14165        6.76315
C         35.13875       47.91790        8.38392
C         36.59453       46.88881        6.23579
C         34.80269       46.67388        7.84972
C         35.53293       46.15666        6.77850
H         38.04343       51.34141       11.04039
H         36.55720       49.00156       10.41582
H         37.27277       50.57607        7.84663
H         35.61735       50.57300        8.47916
H         37.75900       48.69445        6.34041
H         34.56533       48.30514        9.21829
H         37.15950       46.48207        5.40808
H         33.97886       46.11121        8.27055
H         35.27495       45.18830        6.37049
N         39.04426       48.02448        9.95312
C         38.20556       46.89602       10.31398
C         37.89830       46.81700       11.79916
O         37.19076       45.89386       12.17650
C         39.05307       45.70027        9.86064
C         40.45532       46.17171       10.19589
C         40.41246       47.61261        9.70315
H         37.25761       46.88153        9.74162
H         38.75927       44.71718       10.28556
H         38.99333       45.63047        8.74926
H         40.55121       46.17883       11.30545
H         41.28698       45.57092        9.77152
H         41.15936       48.22953       10.24912
H         40.59716       47.67239        8.60730
N         38.40286       47.70874       12.70241
C         38.13750       47.61980       14.13682
C         39.43084       47.34167       14.89316
O         40.49216       47.41112       14.28854
C         37.50860       48.95102       14.61077
C         36.16637       49.28765       13.94062
C         35.03827       48.38855       14.37021
O         34.07748       48.86055       14.95729
O         35.05595       47.07265       14.08935
H         39.01766       48.46990       12.37869
H         37.46546       46.76622       14.34402
H         38.22651       49.76426       14.36183
H         37.36382       48.97706       15.70986
H         36.26425       49.26569       12.83658
H         35.90668       50.32381       14.23585
N         39.46180       46.98995       16.21374
C         38.30406       46.76498       17.05955
H         37.33755       46.89423       16.53988
H         38.33207       45.72167       17.43885
H         38.33640       47.45947       17.92388
H         40.38260       46.83122       16.65159
Ca        43.00777       59.33567       23.39423
O         43.61320       58.97597       26.47763
H         43.29826       59.90487       26.34455
H         43.41181       58.77975       27.42649
O         43.62460       58.84519       20.48821
H         44.47971       58.40764       20.24978
H         43.02364       58.09839       20.73720
O         45.94042       58.50185       23.04368
H         45.86696       57.52400       22.90775
H         46.90855       58.66546       23.17031
O         45.60995       60.78881       25.09975
H         45.61773       61.24209       25.97996
H         46.22817       61.32117       24.53967
O         44.97742       61.36297       21.84888
H         45.89216       61.72505       21.95961
H         44.53378       61.99249       21.22674
O         43.41191       56.56015       24.46624
H         42.78736       56.48364       25.23078
H         43.54998       55.62862       24.16190

Ca 1.0



