%chk=apoCaM-CA-Ng.loop2.water2.frame950.chk
%nprocshared=20
%mem=10GB
%nosave
#b3lyp/svp scf=(tight,noincore,xqc) Test 
#IOP(5/87=12) Density=Current Pop=(MK,readradii) iop(6/33=2) iop(6/42=6)

apoCaM-CA-Ng.loop2.water2.frame950 

   -2  1 
C         79.60952       96.76560       37.00401
C         78.28024       96.60916       36.33165
O         78.23087       96.58834       35.10953
H         80.42405       96.83854       36.25158
H         79.60762       97.68653       37.62270
H         79.80283       95.88582       37.65325
N         77.15055       96.47212       37.08160
C         75.82460       96.29401       36.50454
C         75.27991       94.89579       36.78101
O         74.21857       94.58443       36.26006
C         74.89320       97.40199       37.03973
C         73.52928       97.38478       36.40578
O         73.40840       97.53830       35.20061
O         72.43265       97.21076       37.16794
H         77.23961       96.47901       38.11034
H         75.88113       96.39028       35.39757
H         75.35086       98.39322       36.83067
H         74.79263       97.29283       38.14211
N         75.94647       93.98602       37.56055
C         75.46709       92.61245       37.72542
C         76.21542       91.85642       38.83520
O         77.18902       92.38005       39.35650
C         75.64882       91.88527       36.37522
H         76.81031       94.27254       38.03574
H         74.40020       92.66514       38.03158
H         76.72739       91.86490       36.10662
H         75.28452       90.84801       36.37843
H         75.10273       92.39829       35.55978
N         75.83698       90.61830       39.28857
C         74.66000       89.87104       38.84775
C         73.70372       89.61304       40.00494
O         74.01982       89.95365       41.13603
C         75.08368       88.58000       38.10638
C         75.82963       87.57267       38.93151
O         76.90519       87.84692       39.43920
O         75.34369       86.32345       39.03679
H         76.41951       90.19200       40.02601
H         74.07352       90.47108       38.13109
H         75.73710       88.84742       37.25093
H         74.17761       88.08990       37.69198
N         72.46564       89.09093       39.76301
C         71.43275       88.92498       40.77869
C         70.74914       87.57648       40.65172
O         69.60089       87.55803       40.23216
H         72.20261       88.89061       38.78581
H         70.66458       89.70135       40.57255
H         71.80098       89.10211       41.81014
N         71.35113       86.39041       40.94551
C         72.67605       86.26985       41.52275
C         72.66770       86.60602       43.00677
O         71.99315       85.94045       43.78056
C         73.21621       84.84561       41.32281
C         74.57038       84.68403       42.00833
N         75.14769       83.38284       41.69068
O         75.42442       85.73936       41.64757
H         70.82892       85.52396       40.73614
H         73.36813       86.93673       40.96753
H         73.31887       84.65181       40.23192
H         72.51806       84.09416       41.75208
H         74.46971       82.63494       41.95985
H         75.97357       83.24228       42.30606
N         73.45362       87.61273       43.46724
C         73.60606       87.96434       44.86405
C         74.41679       86.93925       45.62578
O         73.97596       86.49311       46.67355
H         73.98408       88.16874       42.78742
H         72.61669       88.15870       45.33115
H         74.19330       88.90735       44.91552
N         75.66888       86.61112       45.18957
C         76.64265       85.82122       45.96071
C         78.06336       86.08109       45.44842
O         78.23059       86.76087       44.44457
C         76.38688       84.28281       45.90856
C         75.00605       83.82182       46.36440
O         76.61564       83.80922       44.60715
H         75.97029       87.07787       44.32321
H         76.61459       86.17868       47.01342
H         77.11437       83.81286       46.61333
H         77.13201       82.96308       44.68384
H         74.22207       84.18828       45.67039
H         74.96772       82.71125       46.35402
H         74.80508       84.16484       47.40041
N         79.14531       85.53769       46.07907
C         80.49822       85.66399       45.55018
C         80.94364       84.26448       45.17306
O         81.14904       83.44681       46.05988
C         81.44241       86.36748       46.57170
C         82.84267       86.60005       45.94213
C         80.81781       87.69959       47.03928
C         83.85970       87.22908       46.90009
H         79.00809       84.97932       46.93497
H         80.48993       86.28814       44.62989
H         81.54637       85.71575       47.46787
H         82.74908       87.25393       45.04663
H         83.26055       85.62461       45.61485
H         81.43423       88.18292       47.82312
H         80.69478       88.39996       46.18625
H         79.82472       87.52587       47.50430
H         84.84024       87.32297       46.38744
H         83.55564       88.24964       47.20949
H         83.98805       86.59284       47.80088
N         81.00766       83.89550       43.86011
C         81.32261       82.53898       43.41700
C         82.50468       82.55045       42.48242
O         82.50861       81.83867       41.48553
C         80.08615       81.88703       42.77671
C         79.53394       82.74350       41.68165
O         78.36786       83.33483       41.92534
O         80.14803       82.97693       40.65270
H         80.78157       84.59614       43.14047
H         81.61084       81.90815       44.28604
H         79.31028       81.80635       43.57086
H         80.28978       80.86005       42.40606
N         83.59884       83.27603       42.81424
C         84.85709       83.15624       42.11184
C         85.45154       84.52945       41.81246
O         85.59433       85.29862       42.75372
C         85.77604       82.37818       43.06249
C         87.10623       82.09051       42.44330
C         88.25487       82.71649       42.94222
C         87.20925       81.19918       41.36291
C         89.49579       82.46430       42.35927
C         88.45394       80.94506       40.78499
C         89.59646       81.57934       41.28170
H         83.57715       83.83908       43.67885
H         84.74100       82.55770       41.18477
H         85.30303       81.41107       43.34671
H         85.89128       82.97127       43.99726
H         88.18481       83.40853       43.77280
H         86.32788       80.70484       40.96981
H         90.37682       82.95823       42.74434
H         88.53089       80.25886       39.95204
H         90.55991       81.38547       40.83243
N         85.91503       84.89176       40.57109
C         86.72519       86.07741       40.34490
C         85.87345       87.25290       39.88037
O         86.09669       87.77416       38.79521
C         87.70468       85.58580       39.27235
C         86.77434       84.77352       38.37995
C         85.95451       84.00814       39.41799
H         87.29273       86.38709       41.25101
H         88.29323       86.38057       38.76633
H         88.42077       84.87665       39.75089
H         86.10511       85.47861       37.84187
H         87.27369       84.13098       37.62467
H         84.94838       83.73395       39.03389
H         86.51868       83.09916       39.69657
N         84.89551       87.74888       40.68499
C         84.08915       88.91224       40.33940
C         84.37147       90.07394       41.28300
O         83.73313       91.10691       41.13469
C         82.59237       88.53516       40.27590
C         81.97889       88.05929       41.60258
C         80.51741       87.76184       41.41491
O         80.04193       86.52288       41.63752
O         79.75360       88.64262       41.05345
H         84.73622       87.30697       41.59990
H         84.34744       89.28040       39.32220
H         82.46479       87.73361       39.51406
H         82.02916       89.42722       39.92170
H         82.08485       88.84680       42.37868
H         82.49109       87.13940       41.95488
N         85.34670       90.00241       42.23974
C         85.68434       91.09781       43.12405
H         86.74175       91.39084       42.95032
H         85.04298       91.98859       42.96337
H         85.57439       90.76506       44.17688
H         85.91309       89.14984       42.34840
Ca        77.30908       84.88588       40.77969
O         77.15518       88.59507       42.38784
H         77.51263       89.50528       42.53926
H         76.17479       88.71660       42.37565
O         78.86017       85.40224       38.16204
H         79.34172       84.91887       38.87942
H         78.06783       84.83928       37.97195

Ca 1.0



