%chk=apoCaM-CA-Ng.loop2.water3.frame444.chk
%nprocshared=20
%mem=10GB
%nosave
#b3lyp/svp scf=(tight,noincore,xqc) Test 
#IOP(5/87=12) Density=Current Pop=(MK,readradii) iop(6/33=2) iop(6/42=6)

apoCaM-CA-Ng.loop2.water3.frame444 

   -2  1 
C        105.85030       82.42327       69.49333
C        107.30133       82.78919       69.37715
O        108.11653       82.26186       70.11994
H        105.48686       82.01363       68.52770
H        105.69285       81.66508       70.28945
H        105.26043       83.33050       69.74571
N        107.68668       83.71567       68.45864
C        109.05599       84.18514       68.29054
C        109.08078       85.66148       68.62054
O        108.31285       86.41272       68.03263
C        109.52096       83.91146       66.85032
C        110.93216       84.38109       66.62417
O        111.17107       85.21582       65.76634
O        111.93980       83.88179       67.36577
H        106.95862       84.13490       67.85789
H        109.74757       83.64640       68.97587
H        108.83658       84.41247       66.13037
H        109.48224       82.81680       66.65989
N        109.92063       86.14926       69.57937
C        109.84287       87.53121       70.03289
C        108.51872       87.70278       70.74530
O        108.28575       87.01265       71.72959
C        111.00202       87.86992       70.97331
H        110.60107       85.51213       70.02166
H        109.92496       88.20940       69.15360
H        110.99564       87.21243       71.86836
H        111.96658       87.73605       70.43811
H        110.92700       88.92949       71.29952
N        107.57108       88.54898       70.25921
C        106.19818       88.52884       70.75015
C        105.96475       89.51413       71.88841
O        104.86132       89.52921       72.41702
C        105.25043       88.75297       69.55250
C        103.80698       88.53232       69.89279
O        102.99482       89.42595       69.71991
O        103.39908       87.33660       70.36134
H        107.78438       89.08199       69.40144
H        105.97552       87.50894       71.13885
H        105.50796       88.02151       68.75523
H        105.39962       89.77721       69.14458
N        106.93773       90.36202       72.33941
C        106.69654       91.31415       73.41328
C        106.44014       90.67694       74.76983
O        106.10086       91.41345       75.68290
H        107.86367       90.37588       71.88795
H        105.82009       91.93874       73.13170
H        107.57156       91.99106       73.52123
N        106.61414       89.33938       74.99818
C        106.34512       88.71282       76.29452
C        106.87144       87.28569       76.30569
O        106.66505       86.55997       75.34342
C        104.83483       88.73941       76.62336
C        104.56481       88.24525       78.02823
N        103.74162       87.19707       78.25467
O        105.08906       88.81181       78.97568
H        106.98204       88.75407       74.23615
H        106.88582       89.28639       77.08029
H        104.27588       88.14001       75.87140
H        104.45479       89.77984       76.57430
H        103.27702       86.71750       77.47728
H        103.55778       86.86956       79.21451
N        107.54652       86.81471       77.39322
C        108.16831       85.50160       77.43864
C        107.42757       84.54921       78.33804
O        106.37461       84.88640       78.86236
H        107.62512       87.40840       78.23247
H        109.21589       85.62476       77.78718
H        108.19953       85.03166       76.43322
N        107.93168       83.29651       78.53146
C        107.23140       82.28095       79.31229
C        105.91611       81.86391       78.64148
O        105.08775       81.26452       79.31226
C        108.14325       81.05715       79.62332
C        108.61861       80.27831       78.38333
O        109.24754       81.45660       80.40001
H        108.84468       83.07862       78.10844
H        106.97983       82.74194       80.29455
H        107.55867       80.34361       80.24404
H        109.89427       81.92495       79.81024
H        109.22199       80.90977       77.70004
H        109.24626       79.41828       78.69898
H        107.75912       79.87941       77.82372
N        105.66345       82.13984       77.32376
C        104.40126       81.85908       76.63716
C        103.89571       83.14628       76.01050
O        104.63681       83.79181       75.28066
C        104.58178       80.77085       75.54009
C        104.97563       79.42927       76.20386
C        103.27757       80.60245       74.72386
C        105.25931       78.30033       75.21382
H        106.40723       82.57158       76.75655
H        103.63611       81.47408       77.34867
H        105.38836       81.09379       74.84444
H        104.17626       79.10190       76.90501
H        105.89591       79.58119       76.78891
H        102.98800       81.55006       74.22565
H        103.40310       79.86844       73.90548
H        102.44189       80.28130       75.38216
H        104.35055       78.02059       74.64473
H        106.06438       78.59982       74.51058
H        105.58857       77.39984       75.77333
N        102.61547       83.55440       76.22686
C        102.05787       84.76736       75.63426
C        100.85240       85.22878       76.46075
O         99.86608       85.69319       75.90806
C        101.70772       84.47200       74.15414
C        101.31629       85.67283       73.33763
O        100.99794       85.51982       72.16932
O        101.33913       86.91429       73.86004
H        102.01570       82.96606       76.82590
H        102.82785       85.56252       75.68667
H        100.88503       83.72538       74.13197
H        102.58506       84.01897       73.64696
N        100.84802       85.02473       77.81161
C         99.70146       85.24930       78.68806
C         98.45338       84.56252       78.12332
O         98.56049       83.39910       77.76044
C        100.01650       84.61024       80.06881
C         98.85712       84.66838       81.03462
C         98.56321       85.84298       81.74489
C         98.05052       83.53104       81.22246
C         97.47767       85.87629       82.62829
C         96.96095       83.57260       82.09400
C         96.67535       84.74355       82.79904
H        101.68876       84.60755       78.23959
H         99.54930       86.33862       78.80177
H        100.92150       85.05613       80.53712
H        100.26091       83.53971       79.88254
H         99.17563       86.72685       81.61843
H         98.25331       82.61669       80.67818
H         97.25478       86.78090       83.17834
H         96.33721       82.69677       82.21877
H         95.83081       84.77235       83.47497
N         97.21836       85.16767       78.08467
C         96.00450       84.42580       77.75893
C         95.83405       84.04794       76.29948
O         94.91559       83.29245       76.00860
C         94.86685       85.35400       78.20284
C         95.52433       86.14334       79.31976
C         96.88127       86.43715       78.69494
H         96.01090       83.51462       78.40053
H         94.64849       86.08732       77.39220
H         93.92402       84.83095       78.47095
H         94.96329       87.04390       79.64619
H         95.67018       85.46897       80.19278
H         96.76451       87.19747       77.89060
H         97.58592       86.81077       79.45787
N         96.62573       84.56596       75.31627
C         96.44922       84.21451       73.91066
C         96.76864       82.75197       73.69263
O         95.91354       82.01940       73.21599
C         97.36882       85.03459       72.98774
C         97.01346       86.52280       72.90090
C         97.99824       87.17218       71.97617
O         98.06506       86.82670       70.80619
O         98.88742       88.05651       72.45582
H         97.35364       85.24918       75.56934
H         95.39768       84.41581       73.60217
H         97.29174       84.61540       71.95875
H         98.42314       84.93080       73.32701
H         97.08170       86.98844       73.90624
H         95.98176       86.66430       72.50898
N         98.00680       82.26827       73.98556
C         98.38602       80.90352       73.70283
H         99.43926       80.73380       74.01248
H         97.72622       80.20110       74.25230
H         98.30631       80.71491       72.61025
H         98.71106       82.89296       74.40339
Ca       100.68986       88.44472       71.16752
O         99.02485       90.43887       69.92890
H         99.53874       90.54435       69.08929
H         99.60896       90.83069       70.62640
O        101.73685       90.57527       72.85988
H        102.38646       90.49876       72.11709
H        102.29458       90.73654       73.66097
O        100.71898       86.39581       68.84248
H        100.24261       85.58911       69.16298
H        100.53647       86.42354       67.86984

Ca 1.0



