%chk=apoCaM-CA-Ng.loop3.water3.frame740.chk
%nprocshared=20
%mem=10GB
%nosave
#b3lyp/svp scf=(tight,noincore,xqc) Test 
#IOP(5/87=12) Density=Current Pop=(MK,readradii) iop(6/33=2) iop(6/42=6)

apoCaM-CA-Ng.loop3.water3.frame740 

   0  1 
C        108.29138        9.75212       85.73775
C        109.28371        8.69593       85.33905
O        109.14424        8.13046       84.26764
H        107.27346        9.31455       85.79730
H        108.54298       10.19558       86.72479
H        108.29524       10.56575       84.98206
N        110.32351        8.38295       86.15888
C        111.36665        7.41116       85.83019
C        110.74702        6.03615       85.56830
O        110.02925        5.52991       86.41918
C        112.41405        7.43376       86.97065
C        113.64424        6.60156       86.76222
O        114.53861        6.63655       87.59104
O        113.71721        5.71265       85.76641
H        110.38521        8.88450       87.05912
H        111.88742        7.75818       84.91050
H        111.93806        7.12825       87.92821
H        112.76144        8.48447       87.07187
N        110.94329        5.41273       84.36389
C        110.23319        4.19407       83.94517
C        110.54612        2.96045       84.79439
O        109.87658        1.94882       84.61946
C        110.47767        3.87866       82.44099
C        110.21990        5.05685       81.46957
C        108.82850        5.69276       81.62085
C        108.58523        6.87516       80.66330
N        109.53632        7.97359       80.86256
H        111.56753        5.87753       83.69267
H        109.14798        4.39423       84.07008
H        109.81745        3.03266       82.14733
H        111.53093        3.55140       82.29516
H        110.35191        4.69319       80.42699
H        110.98690        5.83042       81.63792
H        108.69954        6.07191       82.65410
H        108.05456        4.91771       81.43319
H        107.55738        7.25495       80.85733
H        108.63217        6.53217       79.60739
H        110.49068        7.69908       80.54225
H        109.23273        8.79770       80.29615
H        109.56973        8.25891       81.86505
N        111.51796        2.96995       85.74500
C        111.78209        1.85846       86.65885
C        112.37184        2.30866       88.01179
O        112.60227        1.43734       88.83608
C        112.67134        0.76543       85.98739
C        114.02136        1.27542       85.55412
O        114.24458        2.59231       85.61495
O        114.88696        0.51376       85.15590
H        112.09162        3.81151       85.80888
H        110.81262        1.38047       86.92672
H        112.15794        0.33009       85.10475
H        112.82221       -0.05205       86.72584
N        112.60756        3.62051       88.34916
C        113.12992        4.01681       89.64826
C        114.55199        3.55778       89.91848
O        114.97939        3.69856       91.05530
H        112.36219        4.38967       87.72322
H        112.45641        3.59875       90.42753
H        113.10538        5.12498       89.74632
N        115.34649        3.00814       88.95104
C        116.66012        2.43126       89.22325
C        117.76999        3.14749       88.47759
O        117.68003        3.31986       87.27022
C        116.68161        0.95279       88.79452
C        115.61279        0.12962       89.46452
N        115.55552        0.02010       90.81200
O        114.79220       -0.45732       88.77583
H        115.00010        2.95224       87.98555
H        116.88881        2.46439       90.31041
H        117.67368        0.51914       89.05003
H        116.55102        0.88739       87.69084
H        116.23972        0.49984       91.41391
H        114.82048       -0.54955       91.25629
N        118.91064        3.49034       89.13894
C        120.09087        4.02554       88.48623
C        119.86076        5.40345       87.92397
O        119.47042        6.29323       88.66639
H        118.98474        3.28747       90.14738
H        120.43266        3.31652       87.69870
H        120.90733        4.10184       89.23599
N        120.15093        5.66492       86.61978
C        120.03367        6.99319       86.02451
C        118.59006        7.44775       85.90749
O        117.67835        6.71965       86.26958
C        120.67582        6.99315       84.61059
C        122.16738        6.79671       84.65186
C        122.98097        7.73851       85.30573
C        122.76351        5.69998       84.01134
C        124.36762        7.58326       85.32187
C        124.15330        5.54735       84.02707
C        124.95951        6.48678       84.68026
O        126.29814        6.32991       84.68069
H        120.52645        4.89646       86.04173
H        120.56895        7.72903       86.66200
H        120.52442        7.95977       84.09104
H        120.18387        6.21550       83.98978
H        122.54401        8.59984       85.79577
H        122.15522        4.96850       83.49393
H        124.97939        8.31965       85.82772
H        124.60394        4.70075       83.52560
H        126.88828        6.96258       85.11476
N        118.34259        8.67261       85.35345
C        117.04618        9.24164       85.01317
C        116.33610        8.33476       84.01618
O        115.99837        7.21551       84.37528
C        116.15817        9.55498       86.25551
C        114.98518       10.51351       85.89136
C        116.96417       10.11261       87.44248
C        115.40689       11.95294       85.53671
H        119.15195        9.25810       85.10212
H        117.27735       10.20675       84.52090
H        115.72166        8.60292       86.61311
H        114.29727       10.58265       86.76142
H        114.40735       10.08937       85.04221
H        117.51418       11.03514       87.16912
H        116.28430       10.32615       88.29573
H        117.70277        9.36263       87.79420
H        116.07287       11.99617       84.65293
H        114.50741       12.55812       85.30128
H        115.91574       12.44292       86.39305
N        116.05206        8.74781       82.74948
C        115.34829        7.89151       81.79964
C        115.91166        7.94908       80.38006
O        115.33032        7.30449       79.51871
C        113.85427        8.25621       81.84234
O        113.09500        7.45061       80.98090
H        116.24562        9.72834       82.49446
H        115.41810        6.82695       82.11310
H        113.71622        9.31768       81.55265
H        113.47163        8.13555       82.88204
H        113.22708        6.50994       81.26907
N        117.02838        8.66545       80.03829
C        117.49952        8.72391       78.65218
C        117.86067        7.33695       78.11970
O        118.06167        6.43864       78.92611
C        118.71241        9.65722       78.53740
H        117.53955        9.19464       80.75746
H        116.65668        9.13867       78.05830
H        119.54779        9.27915       79.16431
H        119.07460        9.72607       77.49328
H        118.43992       10.67780       78.88054
N        117.90597        7.03017       76.78623
C        117.61757        7.95319       75.69103
C        118.72932        7.93809       74.64938
O        119.46263        6.96124       74.58797
C        116.30679        7.51427       75.02730
H        118.09795        6.04711       76.53431
H        117.47665        8.97539       76.06448
H        116.02740        8.17349       74.18223
H        116.39843        6.47720       74.63779
H        115.48332        7.54117       75.77200
N        118.89242        8.93307       73.72568
C        118.19623       10.21708       73.75091
C        118.69946       11.03728       74.92117
O        117.89253       11.46516       75.73474
C        118.40541       10.99645       72.43508
C        117.70692       10.29421       71.25822
C        117.81332       11.10361       69.99886
O        116.69821       11.56240       69.39780
O        118.90518       11.34370       69.50936
H        119.60213        8.78442       72.99003
H        117.10067       10.07413       73.84678
H        119.48914       11.13282       72.22360
H        117.94207       12.00248       72.54733
H        116.62904       10.16712       71.50358
H        118.14573        9.28909       71.08424
N        120.03315       11.27603       75.07516
C        120.58843       12.02289       76.18615
H        121.16282       12.88910       75.79802
H        119.80616       12.40002       76.87792
H        121.27352       11.36577       76.76261
H        120.69647       10.89225       74.38534
Ca       115.52768        4.40194       85.55993
O        114.29729        4.14387       82.77252
H        113.96566        5.03170       83.05833
H        114.91120        4.33677       82.02017
O        117.76677        5.22175       83.24429
H        117.89443        5.91416       82.54853
H        118.56058        4.63653       83.16076
O        117.42715        2.46965       84.24924
H        117.93447        1.71340       84.63607
H        116.61039        2.05978       83.86949

Ca 1.0



