%chk=apoCaM-CA-Ng.loop2.water3.frame154.chk
%nprocshared=20
%mem=10GB
%nosave
#b3lyp/svp scf=(tight,noincore,xqc) Test 
#IOP(5/87=12) Density=Current Pop=(MK,readradii) iop(6/33=2) iop(6/42=6)

apoCaM-CA-Ng.loop2.water3.frame154 

   -2  1 
C         72.57763       68.67837       35.81046
C         73.17732       69.93274       35.24809
O         73.93516       70.59626       35.94154
H         71.46941       68.73098       35.77292
H         72.92245       67.81188       35.20765
H         72.89495       68.52637       36.86440
N         72.85892       70.32949       33.98458
C         73.43954       71.50128       33.33840
C         72.46757       72.68548       33.35427
O         72.79326       73.71361       32.78291
C         73.86647       71.09652       31.90705
C         74.78138       72.07434       31.21063
O         75.14930       71.83769       30.07130
O         75.24668       73.17444       31.83461
H         72.16140       69.77903       33.45812
H         74.35279       71.81539       33.89100
H         72.95224       70.93372       31.29400
H         74.42379       70.13535       31.95526
N         71.27748       72.62806       34.02888
C         70.32294       73.72794       34.17187
C         70.88365       74.91304       35.01341
O         71.54115       74.39812       36.13393
C         69.73691       74.13870       32.81348
H         71.01423       71.75535       34.50747
H         69.47125       73.33824       34.77271
H         68.96125       74.92050       32.95283
H         70.51302       74.52626       32.12277
H         69.26894       73.25609       32.32842
N         71.79906       75.78913       34.26822
C         72.36735       76.87978       35.10094
C         73.85227       76.63047       35.37031
O         74.52285       77.53359       35.85180
C         72.15811       78.26325       34.43331
C         70.69716       78.57699       34.23422
O         69.86157       78.62580       35.28899
O         70.26293       78.79190       33.11405
H         71.29383       76.17525       33.44074
H         71.86326       76.94775       36.08971
H         72.68947       78.29402       33.45756
H         72.57896       79.05847       35.08720
N         74.42511       75.41128       35.13555
C         75.82748       75.10066       35.36102
C         76.24169       75.38660       36.78027
O         77.19550       76.12675       36.97817
H         73.84485       74.63442       34.80277
H         76.45786       75.68546       34.65620
H         75.99037       74.02063       35.15204
N         75.53172       74.88051       37.82568
C         75.82657       75.25591       39.20437
C         77.00051       74.49360       39.77072
O         77.44368       73.51409       39.18582
C         74.59373       75.01676       40.10058
C         73.46216       75.92247       39.70063
N         73.58997       77.26611       39.80425
O         72.42010       75.44254       39.28871
H         74.69000       74.31908       37.61952
H         76.07976       76.33809       39.23047
H         74.82575       75.22855       41.16586
H         74.28709       73.94772       40.02510
H         74.45743       77.68784       40.16599
H         72.81838       77.89058       39.53380
N         77.53364       74.90545       40.95622
C         78.55460       74.17661       41.68593
C         78.05621       73.85949       43.07620
O         76.99177       74.32683       43.46365
H         77.17193       75.77265       41.38343
H         79.48069       74.78422       41.76246
H         78.80080       73.22404       41.16895
N         78.76678       73.02442       43.88372
C         78.30997       72.64558       45.22335
C         76.97136       71.88248       45.21580
O         76.47206       71.59154       46.29248
C         79.40166       71.84131       45.98844
C         79.72169       70.46370       45.38223
O         80.57233       72.61065       46.13199
H         79.65891       72.65800       43.52092
H         78.15276       73.58443       45.80021
H         79.02452       71.64890       47.01645
H         81.06096       72.60933       45.26868
H         80.49115       69.95630       46.00254
H         78.81589       69.82525       45.37556
H         80.11070       70.55062       44.34704
N         76.33285       71.54038       44.05376
C         75.05733       70.82759       43.97839
C         73.97667       71.71653       43.35979
O         74.25095       72.86738       43.05178
C         75.23174       69.47203       43.21127
C         75.32419       69.52969       41.65441
C         76.39032       68.65598       43.80473
C         76.47665       70.31276       41.02245
H         76.76953       71.78281       43.16940
H         74.71230       70.57120       45.00367
H         74.31522       68.87494       43.40924
H         74.38121       69.93653       41.24305
H         75.39808       68.48151       41.29089
H         77.36284       69.15717       43.62737
H         76.24726       68.52830       44.89902
H         76.42835       67.64737       43.34165
H         76.34984       71.40256       41.16499
H         77.45911       69.96961       41.40643
H         76.45954       70.15353       39.92365
N         72.72816       71.21815       43.10913
C         71.68099       71.96187       42.40600
C         70.31296       71.81880       43.10487
O         69.33065       72.32811       42.58255
C         71.67970       71.40297       40.97062
C         71.01109       72.18449       39.87742
O         71.09451       71.74128       38.74241
O         70.43048       73.38754       40.04886
H         72.55423       70.22186       43.30082
H         71.95117       73.03893       42.34059
H         71.30085       70.36536       40.97951
H         72.73777       71.36906       40.63499
N         70.17781       71.15116       44.29505
C         68.91514       70.96045       45.01563
C         67.96686       70.04832       44.23056
O         68.38607       68.94242       43.91384
C         69.20906       70.27825       46.37742
C         67.97205       70.10228       47.22564
C         67.33721       71.21679       47.79937
C         67.44673       68.81899       47.45662
C         66.19495       71.04885       48.58864
C         66.29940       68.65649       48.23837
C         65.67483       69.77008       48.80544
H         71.02188       70.77357       44.74631
H         68.47757       71.95893       45.21719
H         69.95205       70.86572       46.96007
H         69.67145       69.28667       46.17157
H         67.73096       72.21307       47.64130
H         67.91706       67.94534       47.02282
H         65.71285       71.91005       49.03275
H         65.89498       67.66642       48.40478
H         64.78895       69.64156       49.41382
N         66.67027       70.38566       43.92017
C         65.71854       69.48633       43.26151
C         66.08348       69.00581       41.86237
O         65.31209       68.24608       41.29329
C         64.43279       70.31538       43.18099
C         64.53322       71.15946       44.42736
C         65.99933       71.58213       44.38892
H         65.57993       68.60753       43.93153
H         64.49840       71.01868       42.31781
H         63.50414       69.71321       43.08001
H         63.81026       71.99946       44.49121
H         64.37867       70.48508       45.30260
H         66.17661       72.40138       43.65898
H         66.28000       71.89074       45.41378
N         67.23316       69.39166       41.24893
C         67.64268       68.95915       39.92175
C         68.76751       67.94649       40.04330
O         68.73371       66.95429       39.32884
C         68.08139       70.18292       39.10201
C         66.92950       71.17575       38.88495
C         67.40315       72.40418       38.16540
O         67.88430       72.32092       37.04639
O         67.29101       73.60944       38.75561
H         67.87266       70.02972       41.73528
H         66.81074       68.46376       39.37173
H         68.46555       69.85272       38.11129
H         68.89824       70.68812       39.64890
H         66.50941       71.48639       39.86581
H         66.12272       70.69265       38.29266
N         69.75862       68.09074       40.97036
C         70.81986       67.12443       41.16654
H         71.80190       67.63096       41.06590
H         70.73987       66.69818       42.18943
H         70.77495       66.28953       40.43659
H         69.75222       68.89898       41.60482
Ca        70.19846       74.28832       37.97904
O         70.55857       77.59440       38.19100
H         69.68959       77.59654       37.71956
H         70.85051       78.53993       38.17621
O         67.65857       75.99102       37.04545
H         67.37535       76.90314       36.78515
H         67.24085       75.39728       36.37245
O         68.80624       76.63777       40.41565
H         68.99543       77.60807       40.35826
H         68.39816       76.51994       41.30956

Ca 1.0



