%chk=apoCaM-CA-Ng.loop4.water3.frame105.chk
%nprocshared=20
%mem=10GB
%nosave
#b3lyp/svp scf=(tight,noincore,xqc) Test 
#IOP(5/87=12) Density=Current Pop=(MK,readradii) iop(6/33=2) iop(6/42=6)

apoCaM-CA-Ng.loop4.water3.frame105 

   -3  1 
C         33.22911       66.75934      107.12441
C         32.83791       68.22825      107.24978
O         33.85091       68.97976      106.65001
H         34.20569       66.58276      107.62112
H         32.46188       66.11132      107.59544
H         33.32186       66.48665      106.04943
N         31.55145       68.45422      106.56512
C         31.02206       69.82780      106.67313
C         31.91802       70.82025      105.94470
O         32.46760       71.71074      106.56525
C         30.51899       70.17899      108.10675
C         31.49429       70.06797      109.24223
O         32.42209       70.84596      109.34218
O         31.29654       69.14874      110.20764
H         30.83563       67.79742      106.95606
H         30.07762       69.86522      106.08473
H         29.69345       69.46867      108.33228
H         30.07786       71.19970      108.11135
N         32.03667       70.70144      104.58091
C         32.75707       71.54950      103.61653
C         32.28215       73.00106      103.68468
O         31.53879       73.41578      102.80637
C         34.30727       71.38223      103.65354
C         35.01548       72.16174      102.50468
C         34.72128       69.90014      103.58146
C         34.69970       71.68673      101.07833
H         31.49829       69.93212      104.15185
H         32.44371       71.16155      102.62267
H         34.68029       71.78313      104.62121
H         36.11377       72.08284      102.65218
H         34.74505       73.23044      102.55061
H         35.82762       69.80458      103.64022
H         34.29008       69.32630      104.41026
H         34.36108       69.41532      102.65269
H         35.00839       70.63456      100.91866
H         33.62223       71.79400      100.84266
H         35.26629       72.30777      100.35340
N         32.64596       73.82156      104.71030
C         32.05655       75.13272      104.94263
C         32.72734       76.25247      104.14950
O         31.99885       77.00431      103.51822
C         32.03278       75.43565      106.46120
C         31.29412       76.70774      106.77355
O         29.99732       76.83721      106.43312
O         31.86090       77.62260      107.34946
H         33.29475       73.46658      105.42161
H         30.97798       75.08692      104.66474
H         33.05276       75.49653      106.88067
H         31.51231       74.60479      106.98490
N         34.07130       76.50169      104.15014
C         35.06595       75.59696      104.69702
C         36.46646       76.16282      104.60965
O         36.83103       76.61576      103.53351
H         34.39910       77.35173      103.66424
H         35.05067       74.67766      104.09405
H         34.81381       75.30196      105.70804
N         37.37440       76.10965      105.63442
C         37.17398       75.53158      106.96051
C         36.77357       74.04818      106.88999
O         35.69809       73.70550      107.36033
C         36.22442       76.43125      107.80245
C         36.10887       76.02728      109.25191
O         35.32325       76.74850      110.07334
O         36.71535       75.06569      109.69781
H         38.31905       76.47863      105.44278
H         38.14550       75.57761      107.50051
H         35.20493       76.47432      107.38582
H         36.62524       77.46709      107.78378
N         37.58711       73.07358      106.38129
C         38.91639       73.29037      105.83724
C         38.87959       73.76487      104.40992
O         37.81117       73.88568      103.83069
H         37.26616       72.09563      106.45119
H         39.46471       72.32561      105.82506
H         39.49083       73.98217      106.48736
N         40.04575       74.00205      103.75489
C         40.10677       74.49687      102.38726
C         40.46430       73.38405      101.41517
O         40.57749       73.67183      100.23237
C         41.08246       75.69294      102.31773
C         40.60210       76.85351      103.21352
C         41.51170       78.05783      103.19774
N         41.19069       79.14606      103.93617
O         42.53532       78.06232      102.52923
H         40.93525       73.80304      104.24042
H         39.10978       74.85992      102.05039
H         41.14357       76.06087      101.26963
H         42.09688       75.36388      102.63539
H         40.52675       76.50488      104.26512
H         39.59467       77.17627      102.87199
H         40.33078       79.15952      104.50490
H         41.79993       79.97760      103.94101
N         40.56600       72.07891      101.82048
C         40.76632       70.96663      100.89330
C         42.06106       70.21277      101.16181
O         42.38867       69.34893      100.35778
C         39.53537       70.01619      100.90049
C         38.26463       70.76399      100.47031
C         39.30788       69.34552      102.26344
H         40.44495       71.84591      102.81396
H         40.86619       71.35779       99.85692
H         39.71609       69.21143      100.15364
H         38.02010       71.57782      101.18540
H         38.40128       71.20712       99.46119
H         37.40480       70.06270      100.42608
H         39.07013       70.09264      103.04717
H         38.45590       68.63550      102.20361
H         40.21010       68.77466      102.56454
N         42.87570       70.50588      102.21843
C         44.21285       69.94500      102.36606
C         44.40862       69.21347      103.68323
O         44.85403       68.07523      103.65765
C         45.23495       71.09473      102.26939
C         45.10623       71.83766      100.96170
N         44.76892       73.14891      100.94280
O         45.30020       71.24733       99.90934
H         42.59426       71.22505      102.89932
H         44.44452       69.23188      101.54229
H         46.26837       70.69301      102.35346
H         45.07235       71.80073      103.11201
H         44.59309       73.66411      101.81794
H         44.67417       73.65192      100.04825
N         44.18242       69.83868      104.87474
C         44.64224       69.31385      106.15807
C         43.50091       69.05946      107.12051
O         42.65798       69.92791      107.29191
C         45.59033       70.35404      106.78892
C         46.76568       70.66761      105.89428
C         46.91820       71.95700      105.35709
C         47.71723       69.68038      105.58823
C         47.99997       72.25249      104.52391
C         48.80259       69.98002      104.75899
C         48.94632       71.26831      104.22301
O         49.98693       71.57182      103.42147
H         43.76333       70.78051      104.87144
H         45.21502       68.36980      106.02892
H         45.97128       69.98789      107.76715
H         45.00887       71.28319      106.98343
H         46.19549       72.73347      105.57501
H         47.62257       68.68141      105.99485
H         48.10171       73.24863      104.11213
H         49.53073       69.21092      104.53438
H         50.66688       70.92236      103.19258
N         43.48455       67.90927      107.86427
C         42.53440       67.62115      108.93943
C         41.11903       67.36598      108.44520
O         40.24338       67.18388      109.28054
C         42.57825       68.71067      110.04136
C         43.98928       68.86840      110.63020
C         44.00591       69.90066      111.72033
O         43.25145       69.73255      112.82343
O         44.71229       70.89096      111.61807
H         44.23759       67.21976      107.71902
H         42.84427       66.67119      109.43109
H         41.88911       68.41521      110.86324
H         42.22638       69.68747      109.65108
H         44.69860       69.17023      109.82974
H         44.33037       67.89929      111.05408
N         40.82726       67.24913      107.11749
C         39.49526       66.93431      106.61666
C         39.44668       65.55633      105.97502
O         38.37649       65.17195      105.52140
C         39.06835       68.00894      105.59929
C         38.95909       69.41027      106.21405
C         37.91929       69.44485      107.29116
O         36.77418       69.11608      107.03481
O         38.24513       69.81770      108.54307
H         41.57712       67.34441      106.41795
H         38.75199       66.90393      107.44332
H         38.07949       67.74459      105.16242
H         39.80946       68.03393      104.77414
H         38.66041       70.12196      105.41729
H         39.94016       69.73459      106.62155
N         40.53542       64.73668      105.91830
C         40.46264       63.41747      105.33005
H         41.45356       62.92012      105.39124
H         39.72045       62.79930      105.87938
H         40.16504       63.49390      104.26284
H         41.44197       65.03333      106.30541
Ca        34.71986       70.52825      108.09362
O         36.43163       71.90718      110.23985
H         36.12762       72.60294      110.87505
H         37.12189       71.40096      110.73731
O         35.08372       68.45833      110.22662
H         35.92478       67.97196      110.03586
H         34.36623       67.82482      109.97336
O         33.15356       73.55922      109.06609
H         32.48804       73.56623      109.79893
H         33.88707       74.13623      109.39297

Ca 1.0



