%chk=apoCaM-CA-Ng.loop4.water4.frame350.chk
%nprocshared=20
%mem=10GB
%nosave
#b3lyp/svp scf=(tight,noincore,xqc) Test 
#IOP(5/87=12) Density=Current Pop=(MK,readradii) iop(6/33=2) iop(6/42=6)

apoCaM-CA-Ng.loop4.water4.frame350 

   -3  1 
C         87.29104       86.26386       27.61953
C         88.67815       86.03011       27.10418
O         89.57220       85.88918       27.91278
H         86.62043       85.45308       27.26707
H         87.28519       86.26158       28.73304
H         86.91752       87.24459       27.26316
N         88.92472       85.95355       25.76516
C         90.22882       85.66741       25.16572
C         90.74981       84.29528       25.54654
O         91.80456       84.20375       26.13623
C         91.25603       86.83776       25.26175
C         91.61648       87.57151       26.54838
O         92.24386       87.01688       27.61102
O         91.44693       88.78044       26.57096
H         88.12449       86.06172       25.12377
H         90.07824       85.57505       24.06547
H         90.84886       87.62239       24.58451
H         92.20302       86.49205       24.79202
N         90.05635       83.18229       25.15468
C         90.38514       81.76761       25.39220
C         91.66774       81.32678       24.66873
O         91.56017       80.57770       23.70767
C         90.33510       81.39539       26.90121
C         90.35214       79.85800       27.14960
C         89.09429       82.01738       27.56742
C         89.11984       79.09166       26.64438
H         89.18261       83.34874       24.63075
H         89.55363       81.20922       24.91083
H         91.22712       81.82514       27.40725
H         90.42541       79.68663       28.24607
H         91.24563       79.40411       26.68188
H         88.15900       81.72238       27.05023
H         89.02798       81.69071       28.61510
H         89.15436       83.12431       27.56193
H         88.18876       79.46157       27.12045
H         89.01822       79.15779       25.54360
H         89.22120       78.01847       26.90983
N         92.90360       81.77504       25.03585
C         94.11707       81.53585       24.26415
C         94.65127       80.11131       24.39233
O         94.92948       79.52386       23.35683
C         95.20405       82.57927       24.63154
C         96.41769       82.47429       23.74695
O         97.62782       82.23438       24.28662
O         96.31489       82.62112       22.53903
H         92.99588       82.37499       25.85752
H         93.89134       81.75202       23.19378
H         95.52165       82.48594       25.68504
H         94.78047       83.59972       24.50246
N         94.89418       79.48095       25.58216
C         94.45727       79.97729       26.87830
C         94.89120       79.07351       28.02133
O         94.78977       77.86634       27.85493
H         95.35840       78.56001       25.54152
H         93.35471       79.99025       26.87493
H         94.78443       80.99810       27.02633
N         95.29633       79.52077       29.25513
C         95.35103       80.90054       29.72975
C         93.98417       81.55741       29.56851
O         93.84952       82.43039       28.72181
C         96.52620       81.68366       29.07552
C         96.85158       82.97719       29.78180
O         97.75397       83.68159       29.35895
O         96.19845       83.34882       30.89892
H         95.52409       78.80100       29.95920
H         95.60482       80.87330       30.81216
H         96.34414       81.91808       28.01386
H         97.44155       81.05796       29.12622
N         92.89521       81.23281       30.32561
C         92.87049       80.42627       31.53080
C         92.80212       78.94765       31.29938
O         92.86651       78.49044       30.16814
H         92.02016       81.71364       30.11498
H         91.92598       80.67242       32.06699
H         93.70469       80.70563       32.20675
N         92.59093       78.13542       32.37403
C         92.48627       76.68826       32.27473
C         91.03934       76.21306       32.36412
O         90.80846       75.05529       32.04444
C         93.49035       75.99997       33.23161
C         93.36124       76.34062       34.73047
C         92.08746       75.84008       35.33771
N         91.80617       74.51871       35.34183
O         91.31281       76.62907       35.85228
H         92.45223       78.57831       33.29444
H         92.79094       76.37951       31.24996
H         94.50764       76.32621       32.92383
H         93.44482       74.89959       33.08742
H         93.46097       77.43495       34.88866
H         94.19982       75.86022       35.27791
H         92.45763       73.83497       34.93319
H         90.93911       74.17279       35.76255
N         90.00517       77.06040       32.66979
C         88.60302       76.72723       32.39588
C         87.71838       76.60709       33.62915
O         86.55577       76.26586       33.44881
C         87.99110       77.79207       31.42797
C         88.78968       77.90604       30.12260
C         87.86813       79.18877       32.07193
H         90.21404       78.00937       33.00399
H         88.54779       75.73881       31.88880
H         86.96196       77.46466       31.15872
H         88.83247       76.92544       29.60561
H         88.29608       78.63575       29.44617
H         89.82451       78.26090       30.31637
H         87.24536       79.15298       32.98986
H         88.85652       79.62218       32.32871
H         87.36968       79.87692       31.36111
N         88.15034       76.89753       34.88903
C         87.26080       76.88483       36.04792
C         87.11976       78.26826       36.66297
O         86.39459       78.36874       37.64290
C         87.77140       75.93068       37.15369
C         87.84893       74.47923       36.76354
N         86.75975       73.80791       36.32626
O         88.90405       73.88339       36.89466
H         89.12398       77.19074       35.03030
H         86.23579       76.56403       35.76059
H         87.07031       75.97950       38.01570
H         88.76764       76.27917       37.50627
H         85.84885       74.27674       36.22908
H         86.82987       72.80607       36.09231
N         87.75410       79.38200       36.17679
C         87.66689       80.65302       36.89729
C         88.12280       81.84941       36.09074
O         88.89566       81.68620       35.16073
C         88.48570       80.55598       38.21539
C         89.95187       80.20993       37.97321
C         90.83403       81.13130       37.37751
C         90.45295       78.94830       38.34304
C         92.16835       80.79730       37.13609
C         91.79229       78.61554       38.10458
C         92.65215       79.53464       37.49550
O         93.93674       79.19619       37.26278
H         88.30253       79.32681       35.30803
H         86.59003       80.84251       37.10320
H         88.02889       79.76092       38.83870
H         88.41248       81.49451       38.80415
H         90.50095       82.11447       37.09878
H         89.80599       78.21432       38.80515
H         92.82396       81.52272       36.66951
H         92.16122       77.63765       38.38684
H         94.55995       79.80340       36.83788
N         87.71958       83.10072       36.49251
C         88.09799       84.39529       35.92116
C         87.42840       84.71261       34.58563
O         86.86154       85.78905       34.45646
C         89.63146       84.57838       35.89745
C         90.03596       86.03084       35.59242
C         91.51937       86.22177       35.72894
O         92.29094       85.60754       35.00992
O         92.00490       87.07901       36.64830
H         87.11802       83.14817       37.32846
H         87.72465       85.17142       36.62857
H         90.10814       83.89133       35.16578
H         90.01135       84.34219       36.91512
H         89.53009       86.70632       36.31731
H         89.72241       86.31663       34.56598
N         87.48889       83.85439       33.53667
C         87.01899       84.15610       32.19353
C         85.50439       84.29360       32.12844
O         85.01046       84.75357       31.10822
C         87.50277       83.04865       31.21632
C         89.02647       82.74904       31.30569
C         89.88572       83.86438       30.79893
O         89.80565       84.98823       31.26396
O         90.82006       83.58451       29.87835
H         87.92124       82.95659       33.68502
H         87.46891       85.12477       31.89331
H         87.22875       83.30111       30.16763
H         86.96642       82.11690       31.48987
H         89.25067       81.83311       30.72867
H         89.36315       82.49498       32.32481
N         84.70277       83.89948       33.16321
C         83.26127       84.04102       33.16202
H         82.79117       83.03747       33.22720
H         82.95649       84.63577       34.04892
H         82.88401       84.55337       32.25286
H         85.11442       83.45942       33.99797
Ca        91.89706       85.02968       28.57365
O         93.44232       84.30354       31.20191
H         93.31671       84.21979       32.17954
H         94.22947       84.89399       31.10323
O         94.96844       85.08687       27.10956
H         95.92429       84.86979       26.96881
H         94.79331       85.84532       26.49740
O         94.42214       87.22196       29.75489
H         94.39797       87.30397       30.74128
H         93.96547       88.03786       29.43028
O         91.38411       87.35588       30.75905
H         91.30007       87.81296       31.63269
H         91.90053       86.53633       30.96209

Ca 1.0



