%chk=apoCaM-CA-Ng.loop1.water3.frame1090.chk
%nprocshared=20
%mem=10GB
%nosave
#b3lyp/svp scf=(tight,noincore,xqc) Test 
#IOP(5/87=12) Density=Current Pop=(MK,readradii) iop(6/33=2) iop(6/42=6)

apoCaM-CA-Ng.loop1.water3.frame1090 

   0  1 
C         57.61138       72.82763       46.14269
C         57.64368       73.86460       47.21697
O         56.79922       74.75086       47.19919
H         57.03238       73.19161       45.26647
H         58.64245       72.58306       45.81349
H         57.12252       71.92022       46.55161
N         58.58462       73.79543       48.20810
C         58.63558       74.72768       49.33583
C         59.39138       76.01383       48.95689
O         60.25223       76.46238       49.70340
C         59.24386       74.06408       50.61366
C         58.89135       72.60490       50.78677
O         57.99182       72.21929       51.70789
O         59.49362       71.75240       50.14988
H         59.22971       72.99682       48.18009
H         57.58136       74.97355       49.59213
H         58.88725       74.64284       51.49470
H         60.35538       74.11565       50.62564
N         59.15753       76.62142       47.75993
C         59.88422       77.76604       47.24920
C         59.32350       79.04437       47.79216
O         60.12844       79.87392       48.19308
C         59.87671       77.82263       45.71844
C         60.40123       76.52355       45.10308
C         60.55586       76.69106       43.59775
C         60.85668       75.34291       42.94731
N         61.05837       75.49945       41.51083
H         58.50409       76.19877       47.11256
H         60.96211       77.67242       47.52460
H         60.53628       78.66511       45.41006
H         58.85407       78.01427       45.33045
H         59.68094       75.70367       45.31211
H         61.38742       76.24563       45.53900
H         61.37701       77.41708       43.40225
H         59.61405       77.09013       43.16155
H         59.99194       74.66413       43.12667
H         61.76400       74.88963       43.40466
H         61.90474       76.08838       41.33511
H         61.20103       74.55579       41.08593
H         60.21847       75.94718       41.07676
N         57.98976       79.32920       47.90064
C         56.80304       78.52974       47.51235
C         56.20995       77.82330       48.72035
O         56.84954       77.78033       49.76079
C         55.76039       79.45083       46.82387
C         55.59210       80.72670       47.57016
O         54.98353       80.78325       48.78066
O         56.22109       81.67480       47.14433
H         57.81097       80.21071       48.40000
H         57.03137       77.73515       46.77963
H         54.76745       78.99424       46.62991
H         56.17817       79.70930       45.82656
N         55.02060       77.15964       48.62747
C         54.44430       76.42184       49.73895
C         53.74106       77.28043       50.76939
O         53.54266       78.45953       50.55826
H         54.53963       77.10578       47.71807
H         55.22517       75.79200       50.20753
H         53.65491       75.74546       49.35244
N         53.25930       76.67529       51.89098
C         52.33696       77.27258       52.87510
C         51.46324       76.15640       53.46217
O         51.89250       75.01079       53.42792
C         53.09526       77.94339       54.03989
C         54.04183       78.99372       53.56915
O         55.23225       78.84536       53.79342
O         53.56215       80.11233       52.95968
H         53.45904       75.66825       51.93933
H         51.69195       78.00750       52.34939
H         53.66185       77.15845       54.59217
H         52.39288       78.42125       54.75180
N         50.24969       76.33696       54.05579
C         49.53657       77.57835       54.28563
C         49.11723       78.28337       53.02819
O         48.50325       77.66815       52.16611
H         49.78452       75.48605       54.40945
H         50.12645       78.24486       54.94234
H         48.59827       77.32608       54.82515
N         49.37336       79.61452       52.89059
C         48.93704       80.38469       51.74043
C         49.99702       80.36207       50.64819
O         51.18319       80.30119       50.92829
C         48.47745       81.81092       52.14994
C         47.93212       82.60766       50.95922
O         49.53297       82.52803       52.72667
H         49.85760       80.10814       53.65516
H         48.01549       79.91051       51.33189
H         47.63886       81.71433       52.88158
H         49.37893       82.58589       53.70510
H         47.54801       83.59340       51.29554
H         48.72899       82.79000       50.20642
H         47.09913       82.05045       50.48100
N         49.57962       80.39470       49.35646
C         50.37670       80.41435       48.13623
C         51.20288       81.69284       47.97777
O         52.10903       81.94442       48.75689
C         51.21642       79.12219       47.82921
C         50.43970       77.82390       48.20409
C         51.59849       79.18093       46.32723
C         51.03016       76.51702       47.64477
H         48.55983       80.42350       49.20620
H         49.60614       80.42203       47.33491
H         52.16434       79.09089       48.40997
H         49.38010       77.87130       47.87984
H         50.46142       77.75240       49.31484
H         50.69963       79.33423       45.68916
H         52.29429       80.02865       46.14933
H         52.11829       78.26903       45.97756
H         52.11750       76.44326       47.83123
H         50.53045       75.64295       48.11622
H         50.85214       76.43929       46.55028
N         50.98273       82.49036       46.89239
C         51.84268       83.60653       46.49113
C         51.79540       84.83275       47.39206
O         52.71530       85.63586       47.31286
C         51.49619       84.04460       45.03168
C         50.09139       84.66599       44.89571
O         51.57864       82.93674       44.17369
H         50.24049       82.19553       46.24146
H         52.88939       83.22712       46.47382
H         52.21375       84.82221       44.67942
H         52.53871       82.69050       44.11919
H         50.04915       85.64819       45.40899
H         49.85036       84.84083       43.82550
H         49.30024       84.01210       45.31764
N         50.66769       85.16133       48.08013
C         50.44953       86.50971       48.60973
C         51.27066       86.84161       49.85090
O         51.25189       86.10620       50.82402
C         48.95117       86.81028       48.79129
C         48.23594       86.80524       47.42862
O         48.35459       85.87688       49.65633
H         49.87656       84.50056       48.05679
H         50.75881       87.23301       47.82307
H         48.87714       87.84866       49.19535
H         47.80367       86.38050       50.30835
H         47.21576       87.22660       47.52400
H         48.78863       87.43717       46.69573
H         48.16601       85.77769       47.01602
N         52.01880       87.98606       49.85211
C         52.92044       88.44724       50.90480
C         53.95404       87.38893       51.24385
O         54.14153       87.08253       52.41477
C         52.17706       88.96784       52.15770
C         51.14339       90.04122       51.79921
C         50.37190       90.51742       53.03253
C         49.32537       91.56481       52.62596
N         48.35946       91.78765       53.69895
H         51.96463       88.59644       49.02239
H         53.46827       89.32291       50.48989
H         52.92518       89.42093       52.85074
H         51.67731       88.12674       52.68332
H         50.40594       89.59875       51.09438
H         51.64338       90.90256       51.30543
H         51.05661       90.95001       53.79719
H         49.86203       89.63387       53.47388
H         48.76724       91.21169       51.73101
H         49.83877       92.51727       52.36050
H         48.83693       92.13491       54.56081
H         47.65359       92.49000       53.38010
H         47.85944       90.89128       53.90563
N         54.69498       86.81003       50.25628
C         55.72096       85.81439       50.52499
C         55.49252       84.58407       49.68351
O         54.96558       83.63203       50.24182
C         57.13150       86.42449       50.42830
C         57.44663       87.23678       51.68141
C         58.82338       87.81665       51.60278
O         59.87239       87.12988       52.09376
O         58.99352       88.92883       51.13078
H         54.52695       87.08493       49.27630
H         55.62920       85.44100       51.57082
H         57.21495       87.11932       49.57419
H         57.88760       85.61501       50.33038
H         57.38916       86.57196       52.57105
H         56.70252       88.05207       51.79986
N         55.84841       84.42434       48.38083
C         56.53532       85.31403       47.47235
H         57.54705       84.90116       47.24431
H         55.96584       85.35228       46.52444
H         56.61591       86.34156       47.81908
H         55.61165       83.52809       47.98834
Ca        53.97729       80.96611       50.84632
O         54.36033       82.87504       52.94184
H         54.95576       83.65033       53.08197
H         53.52528       83.11893       53.41017
O         56.51068       80.32824       51.29715
H         56.08260       79.68959       50.68491
H         56.28046       79.95370       52.17163
O         51.87941       83.10554       51.45218
H         52.14036       83.89486       50.92297
H         51.61935       83.48455       52.32714

Ca 1.0



