%chk=apoCaM-CA-Ng.loop1.water2.frame921.chk
%nprocshared=20
%mem=10GB
%nosave
#b3lyp/svp scf=(tight,noincore,xqc) Test 
#IOP(5/87=12) Density=Current Pop=(MK,readradii) iop(6/33=2) iop(6/42=6)

apoCaM-CA-Ng.loop1.water2.frame921 

   0  1 
C         19.67694       25.09024       -3.77932
C         20.76628       24.29945       -3.11605
O         21.41603       23.49856       -3.77274
H         18.71122       24.90014       -3.26352
H         19.91376       26.17264       -3.71346
H         19.57044       24.80743       -4.84789
N         20.98995       24.45938       -1.78391
C         21.99013       23.72128       -1.02514
C         21.30903       22.64519       -0.19528
O         20.36938       22.92611        0.52286
C         22.92087       24.67241       -0.22891
C         22.33800       25.95333        0.35943
O         22.79284       27.01180       -0.04557
O         21.37150       26.02470        1.30605
H         20.37215       25.10214       -1.26494
H         22.67128       23.16811       -1.71069
H         23.68055       25.02127       -0.96745
H         23.49168       24.09331        0.52535
N         21.69852       21.34546       -0.32865
C         21.02290       20.21816        0.30587
C         21.14742       20.22055        1.82057
O         22.25939       20.26172        2.32856
C         21.58908       18.90139       -0.26342
C         20.86393       17.67404        0.30490
C         21.28058       16.40055       -0.42954
C         20.57936       15.17947        0.17502
N         20.90380       13.96927       -0.57653
H         22.48225       21.13655       -0.96739
H         19.94977       20.24565        0.01461
H         22.68056       18.81691       -0.05867
H         21.44206       18.92670       -1.36599
H         19.76625       17.80493        0.18255
H         21.09426       17.57645        1.38880
H         22.38218       16.26407       -0.36330
H         20.99513       16.49897       -1.50047
H         19.47686       15.33161        0.15911
H         20.90171       15.05919        1.23370
H         20.43832       13.15102       -0.12223
H         20.55177       14.05694       -1.55789
H         21.93793       13.81434       -0.58469
N         20.03044       20.05748        2.59379
C         20.06478       19.88997        4.04764
C         19.55462       18.51458        4.42897
O         18.88423       17.89054        3.61744
C         19.13072       20.92415        4.71483
C         19.58974       22.30628        4.40492
O         18.85083       23.10690        3.61978
O         20.67882       22.68467        4.79733
H         19.11425       19.98399        2.12453
H         21.10790       20.00110        4.40282
H         19.09184       20.79185        5.81734
H         18.09940       20.77892        4.31676
N         19.73707       17.97670        5.66802
C         20.59729       18.48216        6.72315
C         21.45687       17.35318        7.24603
O         21.76321       16.42777        6.50474
H         19.24074       17.10856        5.88748
H         19.94326       18.81743        7.55403
H         21.23233       19.33863        6.43063
N         21.82762       17.33613        8.55508
C         22.50295       16.20019        9.16815
C         21.54170       15.01621        9.19315
O         20.50964       15.09980        9.84579
C         22.97544       16.59736       10.58663
C         23.70298       15.50534       11.31777
O         23.25656       15.09109       12.51939
O         24.72055       15.01906       10.85134
H         21.58671       18.15040        9.14109
H         23.41079       15.95601        8.57176
H         22.10456       16.92348       11.19627
H         23.66818       17.46250       10.49011
N         21.81345       13.88315        8.48433
C         20.94385       12.71564        8.47670
C         19.62148       12.89316        7.75048
O         18.86236       11.93392        7.74944
H         22.69792       13.82254        7.95819
H         20.75859       12.39452        9.52455
H         21.46805       11.88416        7.95668
N         19.27617       14.03712        7.08422
C         18.02442       14.16906        6.33826
C         17.19005       15.29187        6.92642
O         17.73593       16.16435        7.58859
C         18.30597       14.42816        4.83288
C         19.30478       13.42843        4.24155
O         17.10134       14.37866        4.11174
H         19.92007       14.83645        7.07643
H         17.43666       13.22863        6.41681
H         18.76352       15.42711        4.71725
H         17.24863       14.87533        3.26370
H         20.28320       13.50965        4.76342
H         18.92640       12.39041        4.32895
H         19.48346       13.66770        3.17101
N         15.83878       15.30774        6.76503
C         14.99815       16.36056        7.31904
C         14.54796       15.95673        8.71066
O         14.66460       16.78265        9.60632
C         13.87207       16.77037        6.32766
C         14.43277       17.09580        4.91059
C         13.06181       17.96504        6.87015
C         15.43313       18.25874        4.84279
H         15.38279       14.51350        6.28888
H         15.60439       17.28158        7.46581
H         13.17403       15.91299        6.20637
H         13.58421       17.33094        4.23187
H         14.93238       16.19272        4.50110
H         12.27411       18.26123        6.14426
H         12.56430       17.70215        7.82607
H         13.71582       18.84376        7.05550
H         16.33123       18.05854        5.46193
H         15.77290       18.38788        3.79331
H         14.96549       19.21117        5.16506
N         14.13071       14.68525        8.99910
C         13.87490       14.24745       10.37201
C         12.41620       13.90606       10.56336
O         11.67877       13.78247        9.59455
C         14.80012       13.06070       10.75641
C         16.28104       13.43435       10.61471
O         14.55945       12.67435       12.08620
H         14.04230       13.99207        8.24012
H         14.08196       15.08194       11.07668
H         14.57229       12.20832       10.07376
H         14.91872       11.75472       12.19433
H         16.52211       13.70841        9.56679
H         16.52855       14.28755       11.28195
H         16.91702       12.56830       10.89795
N         11.91901       13.84831       11.82955
C         10.51209       13.66430       12.13590
C          9.95398       14.99030       12.61918
O          8.97927       15.45835       12.04755
C         10.29468       12.48088       13.12333
C         10.81523       12.70803       14.54425
O         10.90369       11.32374       12.61238
H         12.56159       14.03296       12.61309
H          9.95018       13.38760       11.21551
H          9.19832       12.30693       13.23593
H         10.31326       10.97855       11.89396
H         10.62003       11.81115       15.16915
H         11.90563       12.91281       14.55733
H         10.26366       13.54499       15.01020
N         10.54827       15.67005       13.64438
C         10.05780       16.93916       14.16774
C         11.15024       18.00264       14.09394
O         12.29205       17.66833       13.80465
C          9.51572       16.68515       15.59964
C         10.61739       16.35435       16.63446
C         10.10147       15.70062       17.93363
C          9.70738       14.22205       17.72396
N          9.42027       13.55187       18.99196
H         11.38413       15.26602       14.08551
H          9.20579       17.28838       13.54565
H          8.80450       15.83690       15.50728
H          8.93800       17.55986       15.96960
H         11.13109       17.30915       16.87786
H         11.38289       15.66744       16.22457
H          9.26346       16.28402       18.37333
H         10.94618       15.70710       18.65530
H         10.56242       13.68941       17.25421
H          8.82544       14.13993       17.05298
H         10.27068       13.56548       19.60175
H          8.62221       14.01570       19.48075
H          9.17258       12.55323       18.79983
N         10.86786       19.31548       14.33074
C         11.89531       20.35946       14.31547
C         12.62381       20.44891       12.97199
O         13.83176       20.25661       12.98553
C         11.33908       21.74416       14.73230
C         10.80649       21.74354       16.17334
C         10.24313       23.08613       16.53965
O          8.94772       23.19761       16.89133
O         10.95223       24.07971       16.52545
H          9.89189       19.56899       14.54330
H         12.65787       20.09373       15.08387
H         10.53395       22.08122       14.05254
H         12.16303       22.49063       14.67022
H         11.62874       21.48779       16.87605
H         10.00357       20.98665       16.28525
N         12.03931       20.74742       11.77273
C         10.63025       20.97256       11.53167
H          9.99906       20.80505       12.41801
H         10.48459       22.01177       11.16643
H         10.28170       20.27007       10.74696
H         12.65338       20.82065       10.94577
Ca        20.04657       24.59221        2.43207
O         22.74774       23.55709        3.05398
H         22.96500       23.21553        3.95654
H         22.92665       22.79286        2.45267
O         21.59884       26.19430        4.46015
H         22.48590       25.91607        4.80026
H         20.95851       25.88018        5.14700

Ca 1.0



