%chk=apoCaM-CA-Ng.loop2.water5.frame1106.chk
%nprocshared=20
%mem=10GB
%nosave
#b3lyp/svp scf=(tight,noincore,xqc) Test 
#IOP(5/87=12) Density=Current Pop=(MK,readradii) iop(6/33=2) iop(6/42=6)

apoCaM-CA-Ng.loop2.water5.frame1106 

   -2  1 
C         47.32121      -20.82023       54.38608
C         48.67999      -21.39493       54.09214
O         49.59120      -21.14892       54.86899
H         46.57296      -21.62182       54.52772
H         47.35123      -20.22153       55.32163
H         47.00516      -20.15198       53.55921
N         48.94085      -22.15860       52.99257
C         47.96499      -22.54677       51.98206
C         48.67293      -22.68154       50.62821
O         49.37135      -21.74728       50.26031
C         47.17731      -23.78755       52.48478
C         48.06941      -24.92354       52.93082
O         48.80031      -25.49844       52.14402
O         48.06218      -25.31010       54.22077
H         49.90561      -22.48550       52.86149
H         47.24730      -21.71402       51.82490
H         46.44628      -24.13292       51.72464
H         46.58306      -23.49094       53.36947
N         48.54524      -23.78362       49.83135
C         49.24186      -23.98885       48.56561
C         50.75102      -24.03170       48.76090
O         51.48575      -23.39880       48.01428
C         48.79399      -22.97315       47.50196
H         47.92795      -24.55175       50.11984
H         48.94871      -24.99641       48.19422
H         49.07360      -21.93720       47.78353
H         49.26713      -23.20807       46.52456
H         47.69184      -23.02194       47.37466
N         51.27649      -24.78029       49.77058
C         52.70468      -24.96213       49.99550
C         52.98906      -26.40277       50.36747
O         52.27117      -26.94702       51.19354
C         53.24772      -23.99500       51.07515
C         52.68661      -24.14187       52.46609
O         52.84945      -25.28123       53.16358
O         52.16183      -23.18607       53.00865
H         50.62537      -25.22913       50.42927
H         53.28009      -24.69865       49.07983
H         53.07422      -22.95380       50.72394
H         54.34650      -24.14013       51.14655
N         54.09168      -27.04640       49.89460
C         54.50933      -28.33695       50.42521
C         55.67186      -28.18473       51.39087
O         56.02105      -29.16673       52.02942
H         54.71825      -26.55632       49.23788
H         54.74940      -29.03694       49.59713
H         53.68908      -28.80182       51.01099
N         56.31525      -26.99008       51.55942
C         57.41663      -26.76964       52.49187
C         57.31786      -25.36803       53.09671
O         56.38462      -24.63820       52.79022
C         58.75159      -26.93849       51.73350
C         58.94601      -28.35456       51.24992
N         59.04619      -29.37769       52.13293
O         59.02542      -28.57910       50.05181
H         56.07089      -26.19930       50.94902
H         57.37842      -27.49905       53.33043
H         59.61582      -26.70456       52.38753
H         58.76912      -26.23187       50.87439
H         58.99464      -29.20802       53.14824
H         59.18172      -30.34469       51.80307
N         58.27938      -24.91492       53.95012
C         58.30016      -23.56689       54.50280
C         59.51146      -22.80276       53.99576
O         60.24348      -23.33942       53.17536
H         59.06019      -25.53800       54.20393
H         58.33712      -23.65276       55.60892
H         57.39045      -22.99220       54.22615
N         59.83209      -21.54615       54.42571
C         59.09581      -20.78616       55.43199
C         58.68163      -19.41996       54.88634
O         58.99357      -19.09321       53.74953
C         59.98583      -20.61706       56.69159
C         60.42736      -21.96681       57.26891
O         61.12186      -19.85226       56.37452
H         60.69017      -21.11589       54.04482
H         58.17282      -21.32022       55.73816
H         59.38626      -20.10214       57.47737
H         61.36428      -19.33866       57.18919
H         61.05420      -22.52352       56.54012
H         61.02911      -21.80320       58.18770
H         59.54308      -22.58394       57.53297
N         57.98371      -18.55980       55.68258
C         57.60603      -17.19464       55.32463
C         58.40517      -16.26742       56.23996
O         58.34322      -16.47283       57.44487
C         56.06665      -16.98146       55.53277
C         55.17829      -17.69311       54.47509
C         55.70577      -15.48269       55.48446
C         55.24563      -19.21649       54.46006
H         57.73996      -18.87078       56.63493
H         57.84449      -16.97455       54.26695
H         55.78407      -17.33992       56.54802
H         55.42023      -17.31111       53.45844
H         54.11745      -17.43522       54.69119
H         55.97769      -15.06286       54.49999
H         54.61776      -15.33390       55.65300
H         56.22776      -14.90697       56.27687
H         54.50190      -19.60220       53.73061
H         56.23179      -19.57491       54.12369
H         55.00702      -19.62632       55.46347
N         59.16280      -15.21213       55.80564
C         59.26881      -14.72429       54.42596
C         59.45394      -13.20027       54.38930
O         59.51438      -12.57968       55.44250
C         60.38744      -15.48583       53.67620
C         61.77019      -15.32766       54.26002
O         62.70755      -15.90972       53.73813
O         61.99561      -14.56181       55.34520
H         59.64310      -14.67290       56.54285
H         58.30977      -14.89409       53.89649
H         60.41676      -15.15235       52.61734
H         60.14114      -16.56834       53.67668
N         59.51073      -12.52011       53.20274
C         59.67598      -11.06370       53.13291
C         59.59453      -10.56262       51.68357
O         60.33312      -11.09846       50.86682
C         61.06969      -10.65765       53.68897
C         61.17542       -9.16013       53.84501
C         61.99974       -8.39960       52.99939
C         60.43056       -8.51021       54.84598
C         62.06162       -7.00913       53.14337
C         60.50045       -7.12225       54.98980
C         61.31230       -6.37150       54.13656
H         59.42340      -13.05870       52.33017
H         58.88239      -10.59652       53.75114
H         61.85087      -11.04659       52.99828
H         61.28267      -11.10066       54.68222
H         62.57895       -8.87792       52.21981
H         59.79214       -9.07967       55.51040
H         62.68758       -6.42423       52.48227
H         59.92093       -6.62930       55.75975
H         61.36004       -5.29575       54.24542
N         58.82207       -9.49554       51.28017
C         58.02633       -8.63892       52.15203
C         56.75731       -9.24868       52.69143
O         56.22634       -8.70516       53.64904
C         57.66030       -7.43791       51.26936
C         58.83376       -7.38734       50.31277
C         58.98375       -8.86799       49.98325
H         58.68376       -8.29411       52.96886
H         56.76593       -7.68598       50.64934
H         57.44598       -6.50228       51.82948
H         58.68204       -6.73081       49.43007
H         59.73455       -7.04658       50.87371
H         58.14748       -9.19179       49.32377
H         59.95797       -9.07466       49.49009
N         56.15857      -10.31328       52.08371
C         54.88317      -10.84121       52.54132
C         53.80320       -9.79028       52.29427
O         53.60291       -9.43635       51.14041
C         54.45424      -12.15157       51.82557
C         55.34189      -13.39062       52.06967
C         56.43643      -13.62359       51.05506
O         57.46498      -12.77649       50.91266
O         56.40796      -14.62931       50.36321
H         56.59735      -10.71369       51.25148
H         54.97884      -11.09228       53.61883
H         54.26279      -12.02156       50.73784
H         53.47524      -12.39782       52.29715
H         54.67361      -14.27742       51.98973
H         55.74351      -13.36921       53.10120
N         53.05415       -9.22847       53.28527
C         53.18508       -9.55301       54.68812
H         54.20245       -9.30312       55.05001
H         52.45619       -8.95744       55.27829
H         52.97657      -10.63027       54.85333
H         52.34355       -8.52676       53.02396
Ca        50.52409      -27.46447       53.43407
O         51.22379      -29.93481       51.65057
H         51.01466      -30.87500       51.42265
H         51.16325      -29.45126       50.78872
O         53.39111      -28.27408       54.31093
H         53.15081      -27.82416       55.15978
H         53.10041      -29.21218       54.43689
O         47.64406      -28.58543       53.46377
H         47.02614      -28.25178       52.76595
H         47.52141      -27.96244       54.22338
O         50.36234      -27.10150       56.37786
H         50.45974      -27.91462       56.93416
H         49.42884      -26.80703       56.52680
O         50.23969      -30.13396       54.70521
H         50.35333      -30.61883       55.56043
H         49.70414      -30.74452       54.13892

Ca 1.0



