%chk=apoCaM-CA-Ng.loop1.water2.frame1278.chk
%nprocshared=20
%mem=10GB
%nosave
#b3lyp/svp scf=(tight,noincore,xqc) Test 
#IOP(5/87=12) Density=Current Pop=(MK,readradii) iop(6/33=2) iop(6/42=6)

apoCaM-CA-Ng.loop1.water2.frame1278 

   0  1 
C         48.98516       35.04977       17.15097
C         49.90588       36.14601       16.70901
O         49.60990       37.29632       16.99656
H         47.98930       35.19135       16.67865
H         49.37566       34.05105       16.86824
H         48.86955       35.09219       18.25421
N         51.02121       35.87374       15.96700
C         51.92302       36.91993       15.48741
C         51.70529       37.17043       14.00793
O         52.65642       37.29659       13.24794
C         53.39263       36.59875       15.85318
C         53.95989       35.35307       15.20336
O         53.30018       34.67211       14.43296
O         55.23017       34.99544       15.46745
H         51.19571       34.89766       15.68923
H         51.66156       37.88220       15.97669
H         53.46492       36.48226       16.95532
H         54.03273       37.45752       15.55597
N         50.43395       37.26211       13.53715
C         50.11136       37.57079       12.15484
C         50.43618       39.02484       11.85546
O         51.20264       39.24448       10.92830
C         48.65331       37.19010       11.80848
C         48.44852       35.67881       12.03528
C         47.06209       35.18829       11.61992
C         46.93047       33.69043       11.94115
N         45.62552       33.17172       11.54001
H         49.66121       37.07929       14.19159
H         50.73134       36.92558       11.48963
H         48.47601       37.41961       10.73437
H         47.91699       37.76257       12.40752
H         48.59158       35.44367       13.11090
H         49.20803       35.11413       11.44962
H         46.92320       35.35535       10.52924
H         46.28243       35.75337       12.17512
H         47.06286       33.53744       13.03633
H         47.72750       33.12035       11.41258
H         45.56884       32.16053       11.80114
H         44.86421       33.69245       12.03246
H         45.50887       33.26169       10.50482
N         49.97436       40.09310       12.57717
C         49.11311       40.05481       13.76291
C         49.87575       40.48517       15.00567
O         51.02453       40.89545       14.91457
C         47.81879       40.86428       13.55108
C         48.01922       42.12369       12.75977
O         48.92431       43.06369       13.09663
O         47.39500       42.26087       11.71955
H         50.31790       41.02158       12.28525
H         48.79116       39.03336       13.99965
H         47.32225       41.07715       14.52182
H         47.11363       40.23332       12.96433
N         49.31340       40.27622       16.23299
C         50.05309       40.40053       17.47703
C         50.39802       41.81020       17.87107
O         49.98867       42.76163       17.22076
H         48.36381       39.87677       16.28617
H         50.98596       39.80277       17.39105
H         49.45167       39.96967       18.30700
N         51.20186       41.99221       18.95620
C         51.62544       43.29284       19.45486
C         51.54956       43.32809       20.98074
O         51.87369       42.32734       21.60554
C         53.08430       43.55016       19.04211
C         53.24264       43.56989       17.54712
O         54.05655       42.68351       16.94425
O         52.64054       44.39073       16.87326
H         51.59350       41.15108       19.40896
H         51.00241       44.09374       19.00547
H         53.73956       42.76344       19.47496
H         53.41583       44.53520       19.43769
N         51.24439       44.45646       21.68272
C         50.92881       45.72849       21.06567
C         49.44881       45.87036       20.84241
O         48.67557       45.04698       21.31257
H         51.29591       44.42513       22.71363
H         51.51785       45.88183       20.13997
H         51.23617       46.55145       21.74752
N         48.97947       46.95488       20.17058
C         47.56312       47.29246       20.10017
C         46.67500       46.25691       19.41877
O         45.46947       46.41537       19.52002
C         47.36202       48.67517       19.42093
C         47.67849       48.62816       17.90946
O         48.17455       49.62138       20.07354
H         49.67525       47.61255       19.78504
H         47.21591       47.37794       21.15527
H         46.29748       48.97601       19.54239
H         48.14800       50.46336       19.54916
H         47.00981       47.91095       17.38771
H         47.50679       49.62488       17.45229
H         48.73090       48.33230       17.72939
N         47.17116       45.23052       18.65663
C         46.28698       44.31958       17.93140
C         46.42624       44.59712       16.44522
O         47.49371       44.38551       15.89326
C         46.59173       42.82578       18.25172
C         46.62878       42.51353       19.76811
C         45.60367       41.89337       17.52200
C         45.33297       42.80410       20.52751
H         48.18576       45.13185       18.52467
H         45.23110       44.50466       18.21542
H         47.60285       42.58498       17.87073
H         47.44454       43.10053       20.23470
H         46.88497       41.43966       19.90509
H         44.55762       42.09182       17.83501
H         45.66406       42.03691       16.42309
H         45.84824       40.83057       17.73225
H         45.47424       42.54275       21.59742
H         45.07375       43.87989       20.47166
H         44.49196       42.19884       20.13406
N         45.35435       45.07033       15.74326
C         45.36544       45.29689       14.29963
C         45.11693       46.76300       13.92785
O         45.08839       47.04676       12.73449
C         44.34933       44.34851       13.61625
C         42.90046       44.55852       14.06636
O         44.71132       43.01482       13.88062
H         44.48054       45.25598       16.25189
H         46.34381       45.01953       13.87940
H         44.38434       44.54538       12.51614
H         44.98858       42.59926       13.02288
H         42.77742       44.32367       15.14378
H         42.57734       45.60327       13.87903
H         42.23597       43.87470       13.49748
N         44.91459       47.74548       14.85460
C         44.58970       49.12970       14.49378
C         45.75491       49.80503       13.77016
O         46.79467       50.00055       14.38499
C         44.19176       49.92888       15.76512
C         43.77358       51.37261       15.46207
O         43.15411       49.27422       16.45443
H         44.93347       47.49506       15.85558
H         43.70061       49.09949       13.82426
H         45.07021       49.96506       16.44688
H         42.38322       49.19072       15.83395
H         44.60289       51.93285       14.98223
H         42.88985       51.38675       14.78973
H         43.51055       51.88806       16.41025
N         45.65029       50.15223       12.44769
C         46.74309       50.68833       11.62449
C         48.03359       49.94408       11.90056
O         49.04161       50.53398       12.26625
C         46.88665       52.21873       11.72982
C         45.62693       52.93128       11.20091
C         45.80859       54.44260       10.96576
C         46.82527       54.74718        9.84385
N         46.84452       56.17057        9.51207
H         44.78054       49.90149       11.95317
H         46.49603       50.48063       10.55839
H         47.74308       52.48035       11.07785
H         47.12058       52.54608       12.76624
H         44.79638       52.76270       11.92047
H         45.32637       52.48831       10.22573
H         46.10294       54.95460       11.90700
H         44.82064       54.84074       10.64628
H         46.54931       54.17482        8.92966
H         47.84759       54.44232       10.15021
H         45.90552       56.46857        9.16073
H         47.10821       56.73502       10.35133
H         47.54990       56.33299        8.75658
N         48.00960       48.59446       11.81480
C         49.08762       47.72650       12.24870
C         48.51656       46.33338       12.40428
O         48.47684       45.89595       13.54089
C         50.35181       47.80444       11.36363
C         51.44514       46.80703       11.81079
C         51.97948       47.08018       13.19593
O         51.87445       46.16168       14.18522
O         52.54864       48.13603       13.42248
H         47.10848       48.16976       11.55075
H         49.38853       48.05767       13.26988
H         50.76538       48.83490       11.38158
H         50.09736       47.59818       10.31001
H         52.29624       46.86912       11.09911
H         51.04695       45.77218       11.75636
N         47.98329       45.58018       11.39491
C         47.94770       45.92214        9.98796
H         47.41373       46.87417        9.80862
H         48.96918       45.95426        9.56842
H         47.40555       45.12782        9.43110
H         47.55096       44.68532       11.65086
Ca        50.54809       44.31966       14.05560
O         50.05241       46.02901       16.81002
H         50.56266       46.20104       17.64070
H         50.16908       46.85196       16.27265
O         52.94968       42.88645       12.99158
H         53.34237       43.56458       13.59712
H         53.04735       42.03173       13.48117

Ca 1.0



