%chk=apoCaM-CA-Ng.loop1.water2.frame779.chk
%nprocshared=20
%mem=10GB
%nosave
#b3lyp/svp scf=(tight,noincore,xqc) Test 
#IOP(5/87=12) Density=Current Pop=(MK,readradii) iop(6/33=2) iop(6/42=6)

apoCaM-CA-Ng.loop1.water2.frame779 

   0  1 
C        104.38822       24.42180       14.02543
C        104.69510       23.19973       14.84455
O        105.73569       23.13520       15.48151
H        103.44495       24.88361       14.39026
H        105.20336       25.17102       14.09434
H        104.25096       24.13314       12.96127
N        103.79603       22.18405       14.86541
C        103.93277       20.94593       15.62574
C        103.92808       19.76248       14.67994
O        103.03259       19.67060       13.85453
C        102.79669       20.82929       16.68479
C        101.46242       21.42773       16.26531
O        101.04253       22.39255       16.88479
O        100.78273       21.03144       15.16578
H        102.94135       22.30110       14.29880
H        104.89124       20.90735       16.19115
H        103.13033       21.42372       17.56658
H        102.70326       19.77845       17.03781
N        104.86927       18.77311       14.79420
C        104.81074       17.54829       14.00659
C        104.24213       16.42528       14.84978
O        104.88737       15.94112       15.76902
C        106.17686       17.13793       13.41944
C        106.53651       17.94066       12.16488
C        107.85343       17.44348       11.54947
C        108.06205       18.04280       10.15209
N        109.32793       17.59854        9.56987
H        105.56969       18.83101       15.54976
H        104.11478       17.68132       13.15084
H        106.10122       16.07798       13.08476
H        106.96922       17.19131       14.19899
H        106.60343       19.02714       12.38693
H        105.72042       17.77563       11.42621
H        107.82505       16.33627       11.43918
H        108.69699       17.70984       12.22327
H        108.04999       19.15293       10.20616
H        107.22568       17.71345        9.49369
H        109.40723       17.97675        8.59814
H        110.12723       17.95798       10.14015
H        109.36436       16.55383        9.52799
N        102.99451       15.97371       14.55049
C        102.32778       14.82571       15.15537
C        101.83802       13.90355       14.03389
O        101.95175       14.29626       12.87922
C        101.20339       15.32979       16.09450
C        100.18101       16.27692       15.52922
O        100.21441       16.72459       14.26543
O         99.36668       16.77066       16.29265
H        102.48267       16.47895       13.81451
H        103.04767       14.26435       15.78534
H        101.70354       15.88934       16.91415
H        100.66526       14.50305       16.57283
N        101.28359       12.66983       14.21529
C        101.08758       11.93820       15.45531
C        102.36031       11.45288       16.11582
O        103.46007       11.72356       15.65446
H        100.94456       12.19788       13.36525
H        100.51524       11.01713       15.20904
H        100.45844       12.49757       16.16204
N        102.23734       10.66177       17.21830
C        103.34476       10.04193       17.94094
C        104.16109        9.11080       17.05678
O        105.37555        9.25109       17.01709
C        102.83697        9.27418       19.19100
C        101.92463        8.10300       18.90447
O        102.26152        6.97588       19.22977
O        100.72620        8.28544       18.31740
H        101.28039       10.49623       17.56008
H        104.01342       10.84483       18.32596
H        102.30079        9.98005       19.86063
H        103.72751        8.90064       19.74454
N        103.55556        8.14650       16.30694
C        104.27851        7.19762       15.47626
C        104.29567        7.60410       14.02110
O        104.75545        6.81534       13.20719
H        102.52653        8.10716       16.27719
H        103.80176        6.20168       15.59898
H        105.33690        7.09369       15.80175
N        103.91274        8.85414       13.63076
C        104.05158        9.35857       12.27087
C        102.74511       10.00246       11.82423
O        101.82463       10.09636       12.62349
C        105.18597       10.43002       12.27412
C        106.49483        9.92221       12.90017
O        105.44795       10.91532       10.98257
H        103.60038        9.52819       14.34132
H        104.32464        8.53564       11.57419
H        104.85196       11.28871       12.89898
H        105.78331       10.15295       10.44089
H        106.34051        9.63152       13.96094
H        106.88684        9.04861       12.33875
H        107.25336       10.73337       12.88451
N        102.61743       10.53005       10.57365
C        101.49821       11.38757       10.18403
C        100.18592       10.63239       10.30061
O         99.31173       11.10123       11.01191
C        101.68689       12.01036        8.76057
C        103.03823       12.78293        8.65312
C        100.50999       12.96834        8.46302
C        103.30907       13.37682        7.26855
H        103.37596       10.35915        9.90345
H        101.47378       12.24913       10.89055
H        101.68499       11.19350        8.00620
H        103.88920       12.10383        8.84773
H        103.07718       13.59612        9.41033
H        100.50477       13.81032        9.19027
H        100.56797       13.38262        7.43812
H         99.53539       12.44341        8.52626
H        102.58129       14.17217        7.01397
H        104.31877       13.83964        7.25903
H        103.27857       12.58008        6.49522
N         99.98731        9.46556        9.62351
C         98.76856        8.65498        9.70725
C         98.83485        7.50031        8.71551
O         99.82764        6.78754        8.68829
C         98.48664        8.07733       11.13218
C         99.63785        7.23365       11.71672
O         98.07829        9.08897       12.02374
H        100.75145        9.14157        9.01082
H         97.89221        9.28435        9.43487
H         97.61089        7.39572       11.04455
H         98.81830        9.30759       12.64778
H         99.33976        6.84833       12.71479
H         99.86772        6.35736       11.08118
H        100.55337        7.84898       11.83109
N         97.77260        7.23884        7.90025
C         97.69998        6.09451        6.99086
C         96.39059        6.15570        6.21147
O         96.42335        6.17082        4.98899
C         97.82926        4.73583        7.75560
C         97.83813        3.54199        6.79051
O         96.79323        4.59118        8.69274
H         96.96328        7.87687        7.95064
H         98.54717        6.15876        6.27066
H         98.79970        4.71109        8.29284
H         97.01861        3.81126        9.26428
H         97.97894        2.59820        7.35989
H         96.88372        3.47290        6.22856
H         98.68000        3.63975        6.07228
N         95.19755        6.19574        6.87283
C         93.90112        6.21191        6.21198
C         92.89327        6.97504        7.05606
O         92.78427        6.72075        8.24874
C         93.40166        4.76799        5.99133
C         92.03475        4.76491        5.27716
C         91.45536        3.36206        5.10081
C         90.06037        3.45250        4.46000
N         89.44216        2.13365        4.34831
H         95.20789        6.19380        7.90275
H         93.98359        6.69087        5.21016
H         93.31257        4.25385        6.97340
H         94.13876        4.21313        5.36988
H         92.13324        5.25907        4.28484
H         91.30489        5.33507        5.88792
H         91.36375        2.88366        6.10028
H         92.12891        2.74704        4.46543
H         90.14149        3.91271        3.44972
H         89.40567        4.10221        5.08467
H         90.02759        1.51066        3.74682
H         89.33158        1.71069        5.29867
H         88.49601        2.23773        3.91506
N         92.02814        7.83759        6.45767
C         90.94265        8.48502        7.17758
C         91.45268        9.63858        8.03067
O         91.16735        9.62617        9.21954
C         89.79489        8.89562        6.22633
C         89.16225        7.65756        5.55891
C         87.98836        8.03317        4.70356
O         87.98863        7.77308        3.51098
O         86.91661        8.63577        5.25340
H         92.07938        7.95065        5.43345
H         90.46476        7.74218        7.85920
H         90.13671        9.59578        5.44220
H         89.00971        9.40272        6.82990
H         88.80601        6.94956        6.33894
H         89.91807        7.13480        4.93462
N         92.20936       10.67366        7.55852
C         92.70765       10.79453        6.20464
H         93.37791        9.94425        5.96425
H         91.88247       10.85874        5.47446
H         93.30830       11.72390        6.11140
H         92.48338       11.41477        8.22252
Ca       100.40440       18.95301       14.38264
O        101.50917       18.72916       11.11300
H        101.47720       17.74647       10.99566
H        102.47509       18.94270       11.15523
O         98.41586       18.21134       11.94281
H         97.67604       18.83144       11.72250
H         97.96808       17.35233       12.14786

Ca 1.0



