%chk=apoCaM-CA-Ng.loop2.water6.frame208.chk
%nprocshared=20
%mem=10GB
%nosave
#b3lyp/svp scf=(tight,noincore,xqc) Test 
#IOP(5/87=12) Density=Current Pop=(MK,readradii) iop(6/33=2) iop(6/42=6)

apoCaM-CA-Ng.loop2.water6.frame208 

   -2  1 
C         24.39254       41.07766       78.93563
C         23.16463       40.70872       79.71761
O         22.11298       41.28032       79.46832
H         25.27602       40.48831       79.26147
H         24.21872       40.88629       77.85636
H         24.61605       42.15439       79.07941
N         23.22159       39.75107       80.68518
C         22.06197       39.35168       81.47691
C         21.54466       40.51329       82.30067
O         22.34033       41.24039       82.87867
C         22.39924       38.18792       82.42860
C         22.85043       36.96310       81.68294
O         24.06556       36.43677       81.92566
O         22.11498       36.43230       80.86534
H         24.12481       39.28317       80.85970
H         21.26008       38.98897       80.79457
H         21.48702       37.91823       83.00701
H         23.18720       38.50122       83.14729
N         20.20281       40.71846       82.41361
C         19.60558       41.79457       83.19915
C         18.09911       41.78519       83.02621
O         17.55240       42.78904       82.59165
C         19.94778       41.67961       84.69434
H         19.58013       40.06800       81.91189
H         19.99817       42.76722       82.82901
H         21.04014       41.73847       84.86924
H         19.48557       42.52762       85.24538
H         19.57314       40.72799       85.12538
N         17.37097       40.66492       83.31184
C         15.92363       40.58292       83.13263
C         15.54087       39.73883       81.92194
O         14.35710       39.66186       81.62251
C         15.23886       40.13829       84.44526
C         15.59086       38.75984       84.94928
O         16.33939       38.02053       84.33035
O         15.06045       38.33556       86.11212
H         17.87509       39.82333       83.62807
H         15.52011       41.59283       82.90211
H         14.13623       40.18064       84.31139
H         15.51241       40.87164       85.23466
N         16.48180       39.14990       81.12534
C         16.16720       38.52390       79.85203
C         15.61704       39.56004       78.89633
O         14.53197       39.37796       78.36321
H         17.47686       39.19146       81.38078
H         15.46124       37.67661       79.99410
H         17.10533       38.12200       79.40993
N         16.31879       40.70774       78.67498
C         15.85040       41.79593       77.82312
C         15.83594       41.36466       76.36352
O         16.85717       40.92819       75.85258
C         16.75675       43.03209       78.01641
C         16.32339       44.26088       77.24544
N         17.07208       45.38543       77.30337
O         15.30320       44.25439       76.57209
H         17.20942       40.83006       79.18294
H         14.83273       42.09822       78.15902
H         17.78735       42.76959       77.72548
H         16.77146       43.30090       79.09559
H         17.93839       45.41150       77.86069
H         16.78955       46.22944       76.78327
N         14.69748       41.48917       75.62943
C         14.57316       41.09858       74.23580
C         15.47233       41.88018       73.29654
O         15.42965       43.10244       73.30101
H         13.85548       41.87298       76.08519
H         13.52708       41.29912       73.91740
H         14.74633       40.00581       74.13770
N         16.23810       41.21512       72.38201
C         16.94546       41.88217       71.28642
C         18.29542       42.46224       71.68933
O         18.95752       43.00764       70.81636
C         17.11880       40.92262       70.06794
C         18.07167       39.73718       70.30833
O         15.86588       40.47648       69.60793
H         16.17230       40.18764       72.37461
H         16.30797       42.71312       70.90839
H         17.56797       41.50778       69.23489
H         15.54503       39.76168       70.21617
H         19.08812       40.10348       70.55538
H         17.71546       39.07926       71.12636
H         18.14987       39.13114       69.38078
N         18.78672       42.37585       72.96035
C         20.13332       42.81994       73.31249
C         20.11728       44.02744       74.23150
O         19.06818       44.45600       74.69292
C         20.95853       41.63244       73.93949
C         20.34106       40.94274       75.19264
C         21.21702       40.54883       72.88420
C         20.10584       41.85173       76.39379
H         18.20527       41.96673       73.70245
H         20.67908       43.16711       72.40733
H         21.96074       42.00990       74.23246
H         21.04666       40.15304       75.53227
H         19.38505       40.44162       74.93300
H         21.73284       40.98080       72.00124
H         21.87218       39.75399       73.30388
H         20.26523       40.08000       72.56357
H         19.31489       42.58077       76.16747
H         19.74650       41.24772       77.25354
H         21.03806       42.37813       76.68679
N         21.31137       44.58467       74.57451
C         21.50041       45.52397       75.67231
C         20.99863       46.95133       75.39859
O         21.20686       47.80244       76.25059
C         23.00582       45.49181       76.05286
C         23.31558       45.97009       77.44363
O         22.34130       46.38075       78.27731
O         24.46598       45.91724       77.84811
H         22.15592       44.19149       74.13064
H         20.95692       45.10660       76.54914
H         23.60302       46.04246       75.29309
H         23.34546       44.43100       76.05411
N         20.30200       47.29572       74.27260
C         19.81659       48.65739       74.03571
C         20.97704       49.58285       73.68046
O         21.62538       49.32150       72.67779
C         18.79949       48.68294       72.86520
C         18.43428       50.10768       72.49478
C         17.76975       50.95022       73.40304
C         18.81734       50.61926       71.24217
C         17.51555       52.28558       73.06935
C         18.56066       51.95196       70.91298
C         17.91519       52.78665       71.82740
H         20.07171       46.57205       73.57938
H         19.26927       49.00768       74.93571
H         17.88719       48.10472       73.12953
H         19.26663       48.18554       71.98701
H         17.46754       50.58178       74.37522
H         19.33750       49.99341       70.52792
H         17.01903       52.93636       73.77751
H         18.87446       52.33946       69.95241
H         17.72858       53.82215       71.57375
N         21.26680       50.71946       74.39133
C         22.26819       51.68991       73.96902
C         23.68892       51.23399       74.25633
O         24.60163       52.01001       74.00180
C         21.88437       52.94246       74.76458
C         21.40759       52.34898       76.07038
C         20.57343       51.16567       75.58469
H         22.17742       51.93506       72.88709
H         22.67474       53.72013       74.83936
H         20.99221       53.40329       74.27966
H         22.30503       51.96133       76.59796
H         20.87202       53.04368       76.75090
H         20.53484       50.39669       76.38475
H         19.55104       51.48830       75.30668
N         23.96414       49.99756       74.75896
C         25.30735       49.52171       75.04564
C         25.69504       48.37351       74.11952
O         26.80497       47.87918       74.25199
C         25.35604       49.03561       76.50194
C         24.97676       50.11365       77.52825
C         24.91993       49.48416       78.88561
O         25.66790       49.84851       79.77774
O         24.05558       48.47211       79.09082
H         23.19675       49.33928       74.95396
H         26.05774       50.33026       74.90319
H         26.37247       48.65343       76.74330
H         24.63712       48.19527       76.58620
H         23.97143       50.52504       77.30902
H         25.71879       50.94061       77.50072
N         24.84524       47.89685       73.15931
C         25.17526       46.80399       72.26836
H         26.19116       46.39719       72.45024
H         24.43775       45.98546       72.40766
H         25.12040       47.16036       71.21832
H         23.91412       48.30964       73.03415
Ca        24.05762       47.09076       80.87173
O         25.25012       44.13374       80.82262
H         24.92610       43.55471       81.55725
H         26.13422       43.75792       80.58311
O         23.92853       45.65196       83.40357
H         24.38984       44.96637       83.94810
H         23.98363       46.48072       83.94258
O         27.08495       46.53117       79.94720
H         26.68686       47.33712       79.53492
H         27.06860       45.85480       79.22470
O         25.18011       49.01366       82.68360
H         24.43848       49.40462       82.15630
H         24.97467       49.26472       83.61784
O         21.93285       44.46676       80.86227
H         22.32398       43.75609       81.42929
H         20.95432       44.35360       80.96196
O         21.08489       47.37766       81.01393
H         20.32125       47.70942       81.54855
H         20.99417       47.83251       80.13931

Ca 1.0



