%chk=apoCaM-CA-Ng.loop4.water5.frame881.chk
%nprocshared=20
%mem=10GB
%nosave
#b3lyp/svp scf=(tight,noincore,xqc) Test 
#IOP(5/87=12) Density=Current Pop=(MK,readradii) iop(6/33=2) iop(6/42=6)

apoCaM-CA-Ng.loop4.water5.frame881 

   -3  1 
C        121.95586      108.40272        9.08295
C        122.49108      109.59390        8.35839
O        122.72806      109.49181        7.16418
H        121.00779      108.06790        8.61168
H        122.70903      107.60574        9.01660
H        121.76772      108.61858       10.15511
N        122.71599      110.75899        9.03064
C        123.20066      111.99758        8.43507
C        122.16661      112.53698        7.46048
O        121.88340      111.89481        6.46230
C        124.60348      111.81478        7.81118
C        125.25415      113.10813        7.39190
O        126.37418      113.08417        6.90748
O        124.62921      114.29225        7.54653
H        122.52390      110.77949       10.04405
H        123.31535      112.72495        9.27005
H        124.55522      111.14087        6.93046
H        125.26572      111.34661        8.57172
N        121.51659      113.70109        7.73358
C        120.44288      114.24987        6.91214
C        120.83020      115.67408        6.51109
O        121.09762      116.45992        7.40976
C        119.12394      114.23367        7.74381
C        118.77142      112.82000        8.29560
C        117.94350      114.81774        6.94847
C        118.46120      111.75262        7.23958
H        121.75574      114.20538        8.60142
H        120.27094      113.62628        6.01484
H        119.27573      114.88116        8.63659
H        117.88367      112.90752        8.95917
H        119.60810      112.45112        8.92733
H        118.14977      115.86742        6.65452
H        117.75277      114.23278        6.02522
H        117.02522      114.81560        7.57367
H        119.32169      111.58403        6.56445
H        118.23580      110.79143        7.74914
H        117.57247      112.03120        6.63841
N        120.87657      116.13038        5.21998
C        120.51539      115.35397        4.03441
C        121.48860      114.22397        3.74399
O        121.16899      113.38397        2.91335
C        120.45942      116.25690        2.78265
C        119.49981      117.40166        2.95054
O        118.19430      117.16465        3.17863
O        119.90065      118.55261        2.87687
H        121.13097      117.12249        5.08963
H        119.50116      114.92981        4.20595
H        120.13601      115.66097        1.90166
H        121.47860      116.65602        2.57607
N        122.69528      114.13652        4.36921
C        123.61114      113.03463        4.15591
C        124.18124      112.93744        2.76656
O        123.91384      113.75996        1.90155
H        122.97460      114.84991        5.05740
H        123.09873      112.08051        4.38642
H        124.47235      113.14847        4.84295
N        125.03346      111.90821        2.52266
C        125.75301      111.69569        1.27460
C        124.88210      111.43992        0.04757
O        125.45619      111.41927       -1.03207
C        126.80833      110.56491        1.46316
C        126.29580      109.30426        2.13205
O        126.81535      108.92364        3.31482
O        125.41532      108.62870        1.63594
H        125.22424      111.27557        3.31466
H        126.31646      112.62787        1.04652
H        127.60010      110.96466        2.13180
H        127.29033      110.31616        0.49294
N        123.52898      111.23955        0.08437
C        122.76256      110.98018       -1.13617
C        123.14239      109.67048       -1.82580
O        122.63924      109.40852       -2.90889
H        123.02222      111.27026        0.97997
H        122.92257      111.82804       -1.83829
H        121.67729      110.93847       -0.89836
N        124.00439      108.79031       -1.23888
C        124.45315      107.51605       -1.77638
C        123.33575      106.49445       -1.91129
O        123.54582      105.47884       -2.55433
C        125.35214      107.68226       -3.02433
C        126.59553      108.52757       -2.67335
C        127.65326      108.48213       -3.74446
N        128.09492      109.61496       -4.33821
O        128.14626      107.40747       -4.05408
H        124.36814      109.01756       -0.31958
H        125.12267      107.04848       -1.01955
H        124.80396      108.12701       -3.88237
H        125.70122      106.66874       -3.32031
H        127.06622      108.13050       -1.74737
H        126.28363      109.57219       -2.47849
H        127.70854      110.53478       -4.08204
H        128.83969      109.57217       -5.04998
N        122.17016      106.63989       -1.21036
C        121.12550      105.61675       -1.16992
C        120.83849      105.13474        0.25724
O        120.02462      104.22322        0.38476
C        119.82379      106.15620       -1.83167
C        119.25678      107.39660       -1.11478
C        120.05367      106.47399       -3.31598
H        122.01860      107.49477       -0.66353
H        121.44675      104.71998       -1.74240
H        119.05352      105.35410       -1.78426
H        119.95653      108.25652       -1.17361
H        118.30111      107.70595       -1.58815
H        119.05068      107.17501       -0.04728
H        120.41073      105.56809       -3.85025
H        119.10320      106.80100       -3.78927
H        120.80498      107.28231       -3.44024
N        121.38234      105.71197        1.37165
C        120.93966      105.39691        2.72750
C        122.09858      105.27427        3.70656
O        122.91427      106.18847        3.77205
C        120.01013      106.53490        3.19532
C        119.41650      106.25884        4.55649
N        119.64268      107.09603        5.59506
O        118.72027      105.26718        4.72022
H        122.02387      106.51331        1.27053
H        120.32927      104.46513        2.74171
H        119.17166      106.64042        2.47315
H        120.57304      107.49468        3.20216
H        120.22655      107.93719        5.48041
H        119.23331      106.90127        6.52072
N        122.16176      104.23005        4.58413
C        123.09961      104.16870        5.70843
C        122.87378      102.90740        6.52599
O        121.75463      102.70456        6.98648
C        122.86385      105.36642        6.67024
C        123.75632      105.31861        7.89309
C        123.19530      105.13166        9.16903
C        125.14699      105.47640        7.77481
C        124.00738      105.12342       10.30446
C        125.95907      105.45883        8.91478
C        125.39274      105.28579       10.18236
O        126.18531      105.28163       11.27333
H        121.45619      103.47974        4.49369
H        124.14491      104.19703        5.32822
H        121.79623      105.34681        6.98566
H        123.02924      106.34183        6.17145
H        122.12585      105.00867        9.28849
H        125.60049      105.62486        6.80332
H        123.55750      104.99994       11.27900
H        127.02906      105.58888        8.81417
H        125.82971      105.16795       12.16676
N        123.90628      102.06955        6.83155
C        123.76342      100.95690        7.76382
C        124.65858      101.20306        8.97586
O        125.86929      101.23227        8.79760
C        124.12365       99.61481        7.10558
C        123.16737       99.26042        5.96076
C        123.49914       97.91124        5.39189
O        124.58995       97.70756        4.88293
O        122.59149       96.91737        5.44110
H        124.84462      102.26904        6.44897
H        122.71177      100.87543        8.08014
H        124.04902       98.81573        7.87717
H        125.17117       99.64506        6.73187
H        123.23058      100.02269        5.15524
H        122.12534       99.24084        6.34977
N        124.18122      101.42091       10.24095
C        122.76241      101.50516       10.58229
C        122.03615      100.19191       10.36337
O        122.66927       99.14676       10.29707
C        122.55087      102.01010       12.02779
C        123.04188      101.04388       13.12033
C        122.87509      101.67602       14.47222
O        121.65634      102.06867       14.88800
O        123.84534      101.85685       15.19066
H        124.87655      101.61053       10.97905
H        122.32319      102.27489        9.90947
H        121.46753      102.20700       12.18726
H        123.08947      102.97220       12.14032
H        124.11363      100.79633       12.96777
H        122.45588      100.10098       13.08692
N        120.68792      100.19148       10.18400
C        119.94823       98.97852        9.91764
H        118.87642       99.21888        9.75300
H        120.34349       98.48624        9.00258
H        120.03468       98.28615       10.78062
H        120.17406      101.08558       10.20327
Ca       121.41869      103.13774       16.86319
O        124.02634      102.15270       18.45784
H        124.74154      101.55550       18.12275
H        123.83059      101.81922       19.36933
O        118.88372      101.32757       16.35517
H        117.89546      101.33915       16.30005
H        119.17936      101.07693       15.44412
O        122.62290      105.23039       18.77137
H        122.17706      106.02119       18.37588
H        122.48828      105.33033       19.74710
O        121.71281      100.04392       17.42996
H        121.40470       99.60081       18.25995
H        122.62427       99.68730       17.28004
O        119.62797      103.17979       19.36613
H        119.76158      102.23461       19.62933
H        118.75573      103.18619       18.89745

Ca 1.0



