%chk=apoCaM-CA-Ng.loop1.water1.frame939.chk
%nprocshared=20
%mem=10GB
%nosave
#b3lyp/svp scf=(tight,noincore,xqc) Test 
#IOP(5/87=12) Density=Current Pop=(MK,readradii) iop(6/33=2) iop(6/42=6)

apoCaM-CA-Ng.loop1.water1.frame939 

   0  1 
C         -5.70967       66.58896       68.46963
C         -4.86408       67.02538       69.63156
O         -5.37713       67.09698       70.73905
H         -6.55133       67.30010       68.33447
H         -5.12207       66.55713       67.52776
H         -6.11734       65.57496       68.66423
N         -3.54927       67.33646       69.45186
C         -2.67285       67.75908       70.54066
C         -3.20882       69.01505       71.23354
O         -3.37431       70.05154       70.60830
C         -1.21813       67.94431       70.04401
C         -1.04226       68.97614       68.95414
O         -2.10722       69.62905       68.44615
O          0.07538       69.21978       68.53086
H         -3.15557       67.24837       68.50248
H         -2.63807       66.93115       71.28429
H         -0.84637       66.96824       69.65948
H         -0.58715       68.22665       70.91504
N         -3.54875       68.96013       72.54697
C         -4.15733       70.07034       73.27244
C         -3.19411       71.23576       73.42821
O         -2.09029       71.02591       73.91216
C         -4.62055       69.55582       74.64622
C         -5.50262       70.55555       75.40179
C         -6.07328       69.88073       76.65932
C         -7.11047       70.73685       77.39387
N         -6.52554       71.94721       77.95914
H         -3.42226       68.06196       73.03952
H         -5.07279       70.38872       72.72437
H         -3.74702       69.25628       75.26732
H         -5.24083       68.65125       74.45730
H         -6.34983       70.85063       74.74396
H         -4.91520       71.46289       75.65907
H         -5.24868       69.60155       77.35106
H         -6.59645       68.95000       76.34839
H         -7.54010       70.12869       78.22012
H         -7.93833       71.00490       76.69959
H         -7.26963       72.45437       78.48592
H         -5.75376       71.70221       78.62114
H         -6.17038       72.56629       77.19766
N         -3.57452       72.50527       73.09383
C         -2.71818       73.67402       73.28306
C         -3.32763       74.54660       74.37230
O         -4.43056       75.03550       74.16658
C         -2.59971       74.47097       71.96644
C         -2.08713       73.62184       70.83651
O         -2.76896       73.45757       69.83672
O         -0.87580       73.04052       70.91775
H         -4.53143       72.65998       72.73954
H         -1.69803       73.35854       73.57893
H         -1.91272       75.33309       72.11229
H         -3.59875       74.87365       71.68313
N         -2.73308       74.77361       75.58176
C         -1.45200       74.23352       75.99877
C         -1.17909       74.53225       77.46393
O         -1.96932       74.11730       78.29953
H         -3.25197       75.33763       76.26138
H         -0.64712       74.63998       75.34955
H         -1.47671       73.12786       75.89725
N         -0.05117       75.19233       77.85854
C          0.29778       75.37989       79.26807
C         -0.67408       76.31505       79.96565
O         -0.70826       77.49195       79.63084
C          1.73547       75.93715       79.39184
C          2.22642       76.09288       80.81181
O          3.34613       76.53518       81.01069
O          1.45820       75.75249       81.86585
H          0.61391       75.50115       77.13293
H          0.28395       74.37914       79.75550
H          1.78671       76.92872       78.88996
H          2.43025       75.24705       78.86694
N         -1.48724       75.85350       80.96016
C         -2.37797       76.71147       81.72202
C         -3.78530       76.54106       81.23716
O         -4.66197       76.16933       82.00458
H         -1.49576       74.84562       81.17789
H         -2.12196       77.78469       81.58506
H         -2.27298       76.48636       82.80567
N         -4.06472       76.86439       79.94735
C         -5.39453       76.84721       79.35980
C         -5.30937       77.45896       77.97745
O         -4.46780       77.06387       77.18641
C         -6.01750       75.43584       79.29561
C         -7.51144       75.54544       78.95746
O         -5.37481       74.64942       78.32986
H         -3.28014       77.20739       79.37117
H         -6.04794       77.47614       80.00679
H         -5.97095       74.93231       80.28468
H         -4.47264       74.44470       78.68194
H         -7.67112       76.03496       77.97863
H         -7.98571       74.54711       78.92859
H         -8.03314       76.14457       79.73572
N         -6.12429       78.47421       77.64249
C         -5.99069       79.24362       76.41832
C         -5.64786       80.64717       76.84119
O         -4.66615       81.19549       76.36569
C         -7.29652       79.16714       75.57533
C         -7.51298       77.70713       75.09663
C         -7.22813       80.12803       74.36783
C         -8.85254       77.47172       74.39820
H         -6.85209       78.73799       78.32217
H         -5.15901       78.87383       75.77319
H         -8.15139       79.47595       76.21697
H         -7.49163       77.02932       75.96999
H         -6.68625       77.40535       74.41538
H         -6.38589       79.85581       73.69581
H         -8.17092       80.11507       73.78633
H         -7.08890       81.17683       74.70362
H         -8.93980       76.39734       74.13018
H         -9.68855       77.73470       75.08011
H         -8.93843       78.05718       73.46173
N         -6.43465       81.28031       77.75439
C         -6.26434       82.66601       78.13012
C         -7.50850       83.38055       77.65520
O         -8.46607       82.73484       77.25406
C         -6.02640       82.80010       79.65335
C         -4.76238       82.04313       80.08808
O         -5.88444       84.15561       79.99200
H         -7.24368       80.79296       78.16050
H         -5.39675       83.10559       77.59106
H         -6.90791       82.36950       80.18400
H         -6.04737       84.22856       80.96891
H         -3.86783       82.44839       79.56808
H         -4.61268       82.15298       81.18360
H         -4.85098       80.95927       79.86214
N         -7.51048       84.72952       77.55365
C         -8.60120       85.44025       76.91198
C         -8.12759       85.89921       75.54924
O         -8.81806       85.64062       74.57040
C         -9.10804       86.58169       77.81556
C        -10.36930       87.22625       77.22332
O         -8.10495       87.54598       77.99812
H         -6.66982       85.24869       77.83855
H         -9.47542       84.77016       76.74993
H         -9.37945       86.13038       78.79908
H         -8.38458       88.10819       78.76673
H        -11.16850       86.46177       77.10859
H        -10.74524       88.02012       77.90098
H        -10.16293       87.67216       76.22914
N         -6.94590       86.56102       75.40428
C         -6.49126       87.12501       74.14405
C         -5.17559       86.53121       73.67347
O         -4.55747       85.72986       74.36316
C         -6.32019       88.64102       74.36090
C         -7.66764       89.31139       74.67086
C         -7.52465       90.78451       75.06857
C         -6.90731       90.95107       76.47018
N         -6.84685       92.36087       76.84876
H         -6.35387       86.72676       76.23290
H         -7.23129       86.93917       73.33429
H         -5.89013       89.13832       73.46655
H         -5.60238       88.77445       75.19768
H         -8.20206       88.78993       75.49039
H         -8.29213       89.23746       73.75417
H         -8.54494       91.22347       75.09723
H         -6.93001       91.32886       74.30316
H         -5.88239       90.52730       76.51003
H         -7.53565       90.40502       77.21016
H         -6.21917       92.87859       76.19202
H         -7.80467       92.78054       76.83038
H         -6.46343       92.43765       77.81861
N         -4.69554       86.93147       72.46441
C         -3.40718       86.56332       71.89566
C         -3.25428       85.05527       71.69262
O         -2.28808       84.52096       72.21808
C         -3.17685       87.40006       70.61319
C         -1.80065       87.20360       69.97226
C         -1.62382       88.17320       68.83582
O         -1.66459       89.50026       69.06927
O         -1.44154       87.76742       67.69959
H         -5.28114       87.58786       71.92342
H         -2.61469       86.89064       72.60753
H         -3.26717       88.46937       70.91120
H         -3.95978       87.21015       69.85579
H         -1.70831       86.15933       69.60248
H         -1.00173       87.39245       70.72017
N         -4.11526       84.26659       70.98407
C         -5.33972       84.71374       70.35947
H         -6.02635       85.13764       71.11982
H         -5.13668       85.44557       69.55931
H         -5.85089       83.84676       69.88832
H         -3.89827       83.25940       70.91235
Ca        -2.06819       71.37790       67.02291
O          0.65548       71.98367       67.46587
H          0.91060       72.91851       67.26598
H          1.37400       71.64332       68.05472

Ca 1.0



