%chk=apoCaM-CA-Ng.loop3.water5.frame102.chk
%nprocshared=20
%mem=10GB
%nosave
#b3lyp/svp scf=(tight,noincore,xqc) Test 
#IOP(5/87=12) Density=Current Pop=(MK,readradii) iop(6/33=2) iop(6/42=6)

apoCaM-CA-Ng.loop3.water5.frame102 

   0  1 
C         47.15367       68.59429       95.34760
C         48.04240       69.70185       95.83277
O         47.69321       70.34938       96.80840
H         46.16123       69.00957       95.07329
H         47.58267       68.08956       94.45614
H         47.02491       67.84041       96.15192
N         49.21305       69.97934       95.19010
C         50.13449       71.04328       95.57127
C         49.45637       72.39979       95.41964
O         49.37443       73.16677       96.36965
C         50.73174       70.76882       96.97554
C         51.86278       71.68956       97.36291
O         52.46743       71.52109       98.55407
O         52.25311       72.57184       96.61386
H         49.47130       69.40947       94.36966
H         50.98501       71.01944       94.85230
H         51.14084       69.73495       96.98339
H         49.94220       70.83405       97.75179
N         48.95823       72.75514       94.20148
C         48.35198       74.05449       93.91280
C         47.00818       74.28173       94.60205
O         46.45638       75.35803       94.41180
C         48.09363       74.20043       92.38790
C         49.33481       74.08842       91.48130
C         50.45236       75.10202       91.77566
C         49.99209       76.56452       91.66814
N         51.11483       77.47699       91.87801
H         49.06869       72.07757       93.43261
H         49.05365       74.85366       94.23581
H         47.61589       75.18283       92.18577
H         47.36683       73.41929       92.07094
H         48.99677       74.22545       90.43052
H         49.76656       73.06899       91.55177
H         51.26291       74.92685       91.03500
H         50.87278       74.91636       92.78649
H         49.21483       76.77586       92.43389
H         49.55532       76.74642       90.66115
H         51.53231       77.32152       92.82444
H         51.84202       77.32533       91.14173
H         50.77130       78.46255       91.81686
N         46.38705       73.33046       95.35844
C         45.01453       73.47314       95.82948
C         44.96236       73.52602       97.34647
O         45.55621       72.68582       98.00795
C         44.17903       72.30700       95.27401
C         42.70568       72.53728       95.47230
O         42.25199       72.71956       96.58480
O         41.86611       72.55880       94.42444
H         46.85644       72.43732       95.55029
H         44.55954       74.40354       95.42257
H         44.49373       71.35471       95.75497
H         44.35919       72.21772       94.18038
N         44.22065       74.49155       97.95719
C         44.12457       74.67316       99.39335
C         43.62414       73.45771      100.14351
O         44.29905       73.04235      101.07497
H         43.69024       75.15387       97.37016
H         43.41903       75.51013       99.59260
H         45.11846       74.97243       99.79117
N         42.43383       72.86488       99.83419
C         41.83078       71.81834      100.66468
C         41.71976       70.45140      100.00504
O         41.29645       69.53426      100.69600
C         40.43299       72.29181      101.14192
C         39.39979       72.47918      100.04137
N         38.15772       72.91357      100.35191
O         39.66898       72.23877       98.87405
H         41.91352       73.22016       99.02191
H         42.45545       71.65776      101.56994
H         40.55620       73.25845      101.67568
H         40.02539       71.55330      101.86635
H         37.90177       73.12209      101.32749
H         37.44869       73.04008       99.61354
N         42.02315       70.22797       98.69415
C         41.79468       68.94267       98.04990
C         40.56381       68.99974       97.17357
O         40.00332       70.06732       96.96906
H         42.34813       71.00115       98.11197
H         41.59040       68.16306       98.81396
H         42.69373       68.61154       97.48804
N         40.01881       67.83715       96.72369
C         38.72249       67.75026       96.06050
C         38.85039       67.05019       94.71269
O         39.96158       66.81363       94.26151
C         37.72169       67.05648       97.02506
C         37.39780       67.95474       98.20133
C         38.28527       68.10136       99.28038
C         36.19171       68.68107       98.20794
C         37.97380       68.96106      100.34000
C         35.88809       69.54540       99.26150
C         36.77927       69.68859      100.33218
O         36.49918       70.52136      101.35461
H         40.49532       66.95033       96.95334
H         38.29776       68.75514       95.84023
H         38.06619       66.05354       97.35816
H         36.76294       66.88594       96.50572
H         39.21449       67.54869       99.30543
H         35.49184       68.59625       97.38545
H         38.66282       69.06615      101.16760
H         34.96208       70.10636       99.24039
H         35.69025       71.05270      101.37768
N         37.73167       66.69854       94.01159
C         37.72632       66.07373       92.69322
C         36.71001       66.81741       91.82517
O         37.08545       67.30704       90.76988
C         37.37404       64.55570       92.79156
C         38.29963       63.77547       93.76961
C         37.40696       63.87887       91.40200
C         39.76506       63.63872       93.32815
H         36.81743       66.86435       94.44315
H         38.73474       66.14053       92.22873
H         36.34242       64.47228       93.19952
H         37.89859       62.74578       93.89380
H         38.26751       64.25709       94.76945
H         36.72964       64.36168       90.68209
H         38.41434       63.94248       90.94405
H         37.11174       62.81122       91.48706
H         39.85083       63.04934       92.39271
H         40.24464       64.62176       93.17141
H         40.33505       63.09432       94.10957
N         35.40226       66.95855       92.22697
C         34.38642       67.63641       91.42072
C         33.88658       66.75063       90.28987
O         33.20997       67.25510       89.40449
C         33.19946       68.08682       92.28412
O         33.65216       68.95918       93.28349
H         35.11348       66.58244       93.14169
H         34.84486       68.55503       90.98995
H         32.71034       67.20343       92.75135
H         32.46562       68.61568       91.63199
H         32.84532       69.40236       93.65428
N         34.21340       65.42645       90.23752
C         33.94732       64.54509       89.11128
C         34.53873       65.12754       87.83670
O         33.92603       65.02757       86.78242
C         32.45448       64.21132       88.99533
H         34.74181       65.01472       91.01390
H         34.47799       63.58718       89.31225
H         32.09886       63.75650       89.94455
H         31.85366       65.11982       88.78572
H         32.28964       63.47552       88.17896
N         35.71479       65.82059       87.88948
C         36.33383       66.44647       86.73123
C         37.79780       66.07200       86.64633
O         38.34201       65.53142       87.60057
C         36.19700       67.96658       86.84557
H         36.17226       65.95419       88.80187
H         35.82392       66.11554       85.80062
H         36.70068       68.33493       87.76598
H         36.64468       68.47079       85.96346
H         35.12195       68.24277       86.89849
N         38.49850       66.31948       85.50098
C         39.92153       66.03549       85.32692
C         40.28227       64.55727       85.49474
O         41.46317       64.24700       85.40854
C         40.77244       66.92412       86.26734
C         40.53352       68.42119       86.00781
C         41.41962       69.27159       86.87210
O         42.63427       69.18950       86.77762
O         40.87784       70.14435       87.74275
H         38.00048       66.74412       84.70380
H         40.20797       66.31146       84.28722
H         41.84772       66.70944       86.07906
H         40.55973       66.69153       87.33243
H         39.47135       68.67330       86.21616
H         40.74942       68.65781       84.94314
N         39.35149       63.58272       85.71670
C         39.72556       62.20021       85.91913
H         40.37988       62.11467       86.81335
H         38.81727       61.58317       86.08883
H         40.26027       61.81427       85.02645
H         38.34757       63.79945       85.74470
Ca        39.68252       72.81077       94.94415
O         40.62577       75.06090       97.43048
H         40.64998       75.53686       98.29823
H         40.92911       75.73128       96.76812
O         37.69825       74.73355       96.45707
H         36.73430       74.80575       96.24359
H         38.01674       75.67046       96.48932
O         39.75448       70.62863       92.90575
H         40.56092       70.30676       93.38182
H         39.09959       69.89255       93.00120
O         39.51600       74.76572       92.69823
H         38.62868       74.56034       93.08769
H         40.03780       75.13988       93.45250
O         37.34131       71.59719       96.34148
H         36.41474       71.42459       96.03946
H         37.38309       71.21831       97.25473

Ca 1.0



