%chk=apoCaM-CA-Ng.loop3.water4.frame1028.chk
%nprocshared=20
%mem=10GB
%nosave
#b3lyp/svp scf=(tight,noincore,xqc) Test 
#IOP(5/87=12) Density=Current Pop=(MK,readradii) iop(6/33=2) iop(6/42=6)

apoCaM-CA-Ng.loop3.water4.frame1028 

   0  1 
C         24.65308       55.85187       33.59250
C         24.04856       56.16731       32.25956
O         22.95344       56.71083       32.21484
H         25.62681       56.37364       33.69518
H         23.98013       56.17786       34.41441
H         24.81072       54.75593       33.67459
N         24.71417       55.84548       31.11511
C         24.15999       56.10181       29.79317
C         22.81633       55.40681       29.61760
O         21.84556       56.09265       29.33670
C         25.16847       55.79756       28.64862
C         25.81378       54.43345       28.55904
O         25.63424       53.48448       29.49300
O         26.57249       54.20468       27.63069
H         25.64449       55.40818       31.19663
H         23.96945       57.19626       29.70055
H         26.00553       56.52472       28.73395
H         24.65245       56.00078       27.68569
N         22.65639       54.07241       29.82786
C         21.38212       53.39094       29.62862
C         21.06322       53.36308       28.14648
O         21.84425       52.81288       27.38113
C         21.44017       51.95872       30.19823
C         21.60895       51.98708       31.72847
C         21.73163       50.57817       32.31306
C         21.85789       50.64004       33.84217
N         22.02349       49.30347       34.41019
H         23.45363       53.52733       30.16843
H         20.58177       53.93132       30.18292
H         22.28043       51.40265       29.72600
H         20.49053       51.42888       29.96310
H         20.72832       52.49931       32.17587
H         22.52164       52.55611       32.00671
H         22.63454       50.08796       31.88709
H         20.83521       49.97882       32.04251
H         20.94403       51.11123       34.26892
H         22.73588       51.26463       34.12176
H         21.20432       48.70210       34.16355
H         22.90380       48.86908       34.04902
H         22.08750       49.38062       35.45104
N         19.93484       53.96229       27.66562
C         19.60538       53.99737       26.23947
C         20.61396       54.80012       25.41216
O         20.50974       54.79148       24.19331
C         18.18331       54.56637       26.01413
C         18.07495       56.03954       26.32669
O         17.74847       56.82335       25.44982
O         18.34377       56.50651       27.55995
H         19.28261       54.37959       28.34517
H         19.60233       52.94412       25.88066
H         17.45489       54.00149       26.63482
H         17.90429       54.41146       24.94808
N         21.58237       55.55513       26.00632
C         22.52817       56.38955       25.29213
C         23.51151       55.61026       24.45478
O         23.43827       54.38998       24.42008
H         21.63139       55.60182       27.02535
H         23.12178       56.94085       26.04557
H         21.96642       57.10845       24.65832
N         24.48196       56.23497       23.72595
C         24.70390       57.68090       23.70487
C         25.44350       58.09364       24.97294
O         26.51461       57.54768       25.20106
C         25.57112       58.10856       22.49128
C         24.91200       57.88840       21.14368
N         24.75947       56.65290       20.60804
O         24.54147       58.86126       20.50353
H         25.10913       55.63449       23.17500
H         23.73716       58.21291       23.58535
H         26.57038       57.62100       22.50077
H         25.73603       59.20508       22.59915
H         25.10492       55.80787       21.07662
H         24.32178       56.53908       19.68195
N         25.00078       59.03873       25.85489
C         23.75164       59.78277       25.73080
C         23.50538       60.71268       26.90797
O         24.38356       60.90368       27.73971
H         25.60801       59.21587       26.66979
H         22.90948       59.07132       25.71250
H         23.73503       60.36924       24.78745
N         22.27729       61.28308       27.07304
C         21.95142       62.10852       28.23871
C         20.44002       62.16029       28.49038
O         19.66762       61.69306       27.66338
C         22.56295       63.51611       28.02203
C         22.47358       64.44844       29.20422
C         21.74921       65.64931       29.11083
C         23.13867       64.14026       30.40290
C         21.68954       66.52492       30.19914
C         23.07783       65.01770       31.48991
C         22.35306       66.21448       31.39074
O         22.28769       67.07104       32.42990
H         21.54616       61.03968       26.38913
H         22.38628       61.61223       29.13500
H         22.06331       63.96610       27.13544
H         23.64161       63.42136       27.77392
H         21.23183       65.91103       28.19631
H         23.70929       63.22456       30.49289
H         21.12800       67.44692       30.11522
H         23.59709       64.76825       32.40656
H         22.73413       66.89552       33.27052
N         19.94656       62.68057       29.65354
C         18.51234       62.75049       29.95120
C         17.75957       63.59829       28.93601
O         18.37073       64.28271       28.12664
C         18.22425       63.34104       31.38395
C         18.58854       62.39309       32.54789
C         18.89850       64.71295       31.59379
C         17.66603       61.17272       32.61716
H         20.62122       62.99878       30.35871
H         18.10031       61.72787       29.87360
H         17.13319       63.52605       31.48782
H         18.43751       62.93791       33.50670
H         19.65263       62.08103       32.49167
H         20.00089       64.62995       31.63140
H         18.61642       65.42296       30.78893
H         18.57422       65.15345       32.56038
H         17.77188       60.53079       31.72633
H         17.91341       60.56616       33.51298
H         16.60500       61.49741       32.70171
N         16.39563       63.62670       28.98587
C         15.57379       64.54957       28.21622
C         14.51253       63.83780       27.39015
O         14.39096       62.62431       27.45485
C         14.90442       65.50840       29.21927
O         14.09262       64.78733       30.10765
H         15.91636       63.01910       29.66821
H         16.20273       65.14989       27.52418
H         14.29371       66.26651       28.68491
H         15.70162       66.03094       29.79379
H         13.65623       65.45396       30.69776
N         13.67682       64.57967       26.60547
C         12.52840       64.07158       25.86295
C         11.49178       63.49901       26.81620
O         11.02881       62.38151       26.63160
C         12.95259       63.09711       24.75517
H         13.83138       65.59805       26.56119
H         12.04755       64.94270       25.36446
H         13.42020       62.18195       25.17251
H         12.06636       62.79701       24.15590
H         13.67874       63.59346       24.07718
N         11.10643       64.24044       27.89491
C         10.13991       63.82468       28.90408
C         10.48612       62.46559       29.48959
O          9.61415       61.61638       29.62340
C          8.71426       63.88165       28.34117
H         11.56292       65.15380       28.04385
H         10.19290       64.56597       29.73261
H          8.58907       63.16218       27.50503
H          7.97625       63.64366       29.13709
H          8.50094       64.90558       27.96706
N         11.77284       62.17781       29.82246
C         12.17098       60.89312       30.37493
C         11.73883       60.82664       31.82212
O         10.99620       59.92565       32.18627
C         13.68773       60.69758       30.19899
C         14.15864       59.29217       30.60255
C         15.59721       59.05750       30.23160
O         16.31218       60.00928       29.60294
O         16.11783       57.98138       30.47549
H         12.49942       62.88033       29.62491
H         11.69320       60.08001       29.78085
H         14.26012       61.47177       30.75570
H         13.89676       60.81471       29.11480
H         13.54895       58.53172       30.06770
H         14.03078       59.15342       31.69685
N         12.14611       61.78478       32.70020
C         11.72697       61.79579       34.08369
H         10.61893       61.85383       34.14290
H         12.08150       60.87756       34.59642
H         12.15338       62.68287       34.59936
H         12.75661       62.54849       32.37122
Ca        18.28334       58.72916       27.94076
O         19.69803       59.41761       25.18809
H         19.53745       58.71090       24.51403
H         19.76303       60.25304       24.66063
O         19.38653       58.65210       30.83403
H         19.96989       59.34738       31.23042
H         19.00062       58.17617       31.61146
O         16.75262       60.56410       26.03424
H         16.06031       60.52857       26.74103
H         16.26826       60.33955       25.20054
O         21.23856       58.99158       28.49461
H         21.78256       58.74415       29.28350
H         21.07549       58.14284       28.01320

Ca 1.0



