%chk=apoCaM-CA-Ng.loop1.water3.frame28.chk
%nprocshared=20
%mem=10GB
%nosave
#b3lyp/svp scf=(tight,noincore,xqc) Test 
#IOP(5/87=12) Density=Current Pop=(MK,readradii) iop(6/33=2) iop(6/42=6)

apoCaM-CA-Ng.loop1.water3.frame28 

   0  1 
C         85.05692       45.77623       53.28727
C         84.38046       44.44459       53.43000
O         84.05462       44.04789       54.53997
H         86.06064       45.63268       52.83301
H         84.45402       46.43650       52.62903
H         85.18029       46.26734       54.27547
N         84.13873       43.69000       52.32282
C         83.48752       42.38173       52.36234
C         84.31902       41.29017       53.05184
O         83.84337       40.16637       53.10628
C         83.10718       41.92094       50.93028
C         84.28734       41.60664       50.04492
O         84.42989       40.47820       49.60113
O         85.17280       42.56368       49.70993
H         84.38940       44.10169       51.41182
H         82.52642       42.49782       52.91138
H         82.48779       42.70350       50.44057
H         82.47554       41.00843       51.01329
N         85.56146       41.52836       53.57586
C         86.43178       40.48691       54.11829
C         86.70836       40.72793       55.60009
O         87.08647       41.84392       55.92504
C         87.77389       40.51269       53.36247
C         87.61162       40.24139       51.86055
C         88.97911       40.29208       51.16468
C         88.91496       39.99292       49.65828
N         88.12069       40.97871       48.92393
H         85.95364       42.47686       53.55406
H         85.99623       39.49505       53.95374
H         88.44556       39.73790       53.79272
H         88.25631       41.50582       53.50241
H         86.94455       41.01349       51.42600
H         87.15179       39.23962       51.71203
H         89.64383       39.53334       51.63286
H         89.43576       41.29478       51.31693
H         88.49987       38.97484       49.48948
H         89.95553       40.00967       49.26542
H         87.11422       40.90011       49.18446
H         88.46916       41.94596       49.11650
H         88.20287       40.78706       47.89965
N         86.63232       39.76310       56.57688
C         86.27684       38.35219       56.42023
C         87.18474       37.66848       55.40088
O         86.69135       37.21433       54.37847
C         84.76426       38.17405       56.12617
C         83.87945       38.72001       57.21777
O         82.66858       38.62482       57.10880
O         84.39651       39.30171       58.31802
H         86.90107       40.05039       57.53193
H         86.43723       37.82915       57.39028
H         84.54625       37.08723       56.03509
H         84.46963       38.65608       55.17897
N         88.53098       37.53150       55.58645
C         89.22627       37.90887       56.81054
C         90.71904       37.59444       56.76804
O         91.21508       37.17628       55.73081
H         89.06020       37.08449       54.82294
H         88.76815       37.34024       57.63477
H         89.10529       38.99464       57.00158
N         91.54219       37.78526       57.84162
C         91.10405       38.22570       59.16194
C         90.26706       37.13494       59.81372
O         90.75894       36.02960       59.99719
C         92.33766       38.55448       60.03943
C         92.01050       39.14167       61.39064
O         90.85663       39.33088       61.74263
O         93.01601       39.48088       62.21947
H         92.54962       37.60475       57.70096
H         90.52786       39.17040       59.04688
H         92.96069       39.30268       59.50237
H         92.94975       37.63777       60.18606
N         88.98322       37.38716       60.18849
C         88.10335       36.40171       60.79660
C         87.74260       35.26120       59.86440
O         88.27838       35.15589       58.77012
H         88.60452       38.33601       60.04755
H         87.15323       36.91626       61.05837
H         88.54952       36.00749       61.73546
N         86.77347       34.38144       60.24306
C         86.29048       33.29261       59.39395
C         85.76404       33.85302       58.08371
O         84.96915       34.77572       58.12434
C         85.15411       32.49788       60.08618
C         85.62453       31.80341       61.36943
O         84.68078       31.51443       59.19863
H         86.33230       34.52978       61.16310
H         87.12268       32.58186       59.19137
H         84.33243       33.21254       60.33538
H         83.71709       31.37968       59.39579
H         86.44366       31.08838       61.14187
H         85.98307       32.53167       62.12383
H         84.77795       31.24050       61.81679
N         86.19502       33.33970       56.89419
C         85.76928       33.77736       55.55864
C         84.32951       33.30365       55.26993
O         84.13629       32.37930       54.49299
C         86.82133       33.27373       54.49616
C         88.23467       33.83716       54.83518
C         86.43740       33.69669       53.06196
C         89.36111       33.31217       53.94070
H         86.89095       32.58074       56.94664
H         85.80199       34.88678       55.49420
H         86.86182       32.16226       54.53475
H         88.52253       33.56886       55.87069
H         88.21416       34.94111       54.77127
H         86.36856       34.80175       52.97678
H         87.16126       33.31987       52.31486
H         85.48366       33.25083       52.75565
H         89.41418       32.20477       54.00122
H         89.23529       33.62168       52.88476
H         90.32813       33.73366       54.28796
N         83.26155       33.90228       55.87243
C         81.86722       33.52751       55.64246
C         81.43265       33.86504       54.22399
O         80.81137       33.03376       53.57950
C         80.92065       34.17975       56.69297
C         80.83005       35.71286       56.64561
O         81.33955       33.78200       57.97446
H         83.43472       34.67657       56.51398
H         81.75448       32.43230       55.81371
H         79.89822       33.77549       56.49866
H         80.54466       33.82039       58.56837
H         80.42361       36.06059       55.67538
H         80.13488       36.06702       57.43626
H         81.81669       36.18133       56.82324
N         81.74916       35.07897       53.68271
C         81.36512       35.57498       52.36016
C         79.88610       35.89889       52.28596
O         79.10985       35.44365       53.11498
C         81.78563       34.63162       51.19808
C         83.26439       34.27810       51.26587
O         81.52448       35.24335       49.96069
H         82.32993       35.71696       54.24843
H         81.89491       36.54741       52.23770
H         81.19533       33.68965       51.27479
H         81.36361       34.51774       49.30171
H         83.89117       35.19303       51.20917
H         83.45634       33.74745       52.21437
H         83.53105       33.59985       50.42768
N         79.44056       36.73442       51.30404
C         78.04251       37.09129       51.11579
C         77.50195       37.74324       52.37543
O         76.53664       37.24537       52.93738
C         77.90966       38.05311       49.90407
C         76.47061       38.24465       49.39381
C         75.97617       37.00085       48.63304
C         74.58710       37.21600       48.02257
N         74.19423       36.05873       47.21692
H         80.13612       37.13708       50.65784
H         77.48845       36.15411       50.89992
H         78.51269       37.67793       49.04790
H         78.33644       39.04090       50.18087
H         76.48512       39.08676       48.66723
H         75.78821       38.51996       50.22690
H         75.93967       36.11563       49.29995
H         76.69021       36.79200       47.80523
H         74.59857       38.11897       47.37215
H         73.84571       37.37549       48.83617
H         74.86424       35.93276       46.42272
H         74.18225       35.19356       47.80436
H         73.23833       36.21884       46.82552
N         78.11133       38.85358       52.88463
C         77.68415       39.53330       54.09768
C         77.27848       40.94714       53.74080
O         78.10008       41.69461       53.22568
C         78.83614       39.52123       55.12413
C         78.43547       40.17597       56.45565
C         79.56679       40.13455       57.43944
O         80.61464       40.71235       57.19734
O         79.42331       39.47276       58.60297
H         78.93277       39.23696       52.39166
H         76.81845       39.00612       54.55576
H         79.72150       40.04543       54.69913
H         79.12315       38.46430       55.32262
H         77.56253       39.63366       56.87935
H         78.14913       41.23771       56.29736
N         76.01307       41.38279       53.98377
C         75.58534       42.72119       53.64259
H         74.52127       42.86210       53.92720
H         76.20305       43.46785       54.18542
H         75.68542       42.88158       52.54784
H         75.32855       40.74760       54.42115
Ca        82.02609       40.24878       60.06169
O         82.44131       36.64437       59.78400
H         82.11243       35.72008       59.91619
H         83.27452       36.53785       59.26059
O         79.98771       38.18021       61.51949
H         79.32301       37.45318       61.61893
H         79.44369       39.00159       61.41949
O         83.85282       38.71889       62.01352
H         84.78458       38.89383       62.29888
H         83.29587       39.06074       62.75767

Ca 1.0



