%chk=apoCaM-CA-Ng.loop1.water3.frame252.chk
%nprocshared=20
%mem=10GB
%nosave
#b3lyp/svp scf=(tight,noincore,xqc) Test 
#IOP(5/87=12) Density=Current Pop=(MK,readradii) iop(6/33=2) iop(6/42=6)

apoCaM-CA-Ng.loop1.water3.frame252 

   0  1 
C         49.50749       19.73879       -9.84025
C         48.86221       18.57852       -9.13564
O         49.08373       18.40492       -7.94594
H         50.61156       19.64594       -9.77835
H         49.22149       19.77319      -10.91382
H         49.19082       20.69028       -9.36516
N         48.03821       17.73727       -9.81780
C         47.36494       16.59174       -9.20995
C         48.32304       15.44237       -8.88818
O         47.83219       14.40604       -8.47387
C         46.28336       16.03665      -10.17829
C         45.17783       17.01710      -10.47378
O         45.40873       18.06762      -11.04995
O         43.91020       16.71812      -10.13011
H         47.86085       17.94298      -10.81266
H         46.83933       16.91321       -8.28416
H         45.80478       15.14770       -9.71358
H         46.75394       15.70983      -11.13182
N         49.66976       15.49651       -9.10714
C         50.50808       14.29922       -9.09792
C         51.59090       14.33567       -8.04198
O         52.20987       15.38086       -7.89984
C         51.13323       14.14769      -10.49594
C         50.02526       13.94876      -11.54031
C         50.59225       13.63002      -12.91960
C         49.44653       13.40227      -13.91318
N         49.96072       13.02533      -15.22678
H         50.11503       16.37155       -9.41268
H         49.89647       13.40938       -8.92795
H         51.80405       13.26468      -10.50683
H         51.75061       15.03756      -10.75099
H         49.39438       14.86301      -11.59967
H         49.38313       13.09627      -11.22494
H         51.20658       12.70544      -12.85020
H         51.23611       14.46682      -13.26805
H         48.84148       14.33254      -14.00200
H         48.78424       12.58960      -13.53750
H         50.57545       13.78255      -15.60333
H         50.50051       12.13222      -15.15361
H         49.15546       12.88113      -15.87766
N         51.97673       13.24156       -7.30086
C         51.46359       11.86036       -7.34256
C         51.59272       11.22048       -8.72545
O         50.65670       11.28827       -9.50750
C         50.06802       11.68438       -6.70667
C         50.06645       12.06295       -5.25358
O         51.20568       12.46439       -4.65448
O         49.02362       12.03790       -4.62068
H         52.76721       13.39182       -6.65331
H         52.10132       11.26448       -6.66091
H         49.77175       10.61951       -6.77226
H         49.30553       12.28981       -7.22735
N         52.70461       10.53022       -9.11029
C         53.81092       10.26234       -8.20705
C         54.91520        9.42469       -8.81702
O         54.90301        9.18163      -10.01523
H         52.72018       10.14558      -10.06715
H         53.39390        9.66221       -7.37034
H         54.24258       11.21400       -7.82553
N         55.89759        8.87311       -8.04578
C         55.99218        9.02964       -6.59387
C         55.54559        7.75424       -5.89600
O         55.21876        6.77845       -6.55924
C         57.40839        9.48719       -6.17053
C         58.49226        8.47040       -6.42162
O         58.77661        8.12467       -7.55645
O         59.18345        7.96123       -5.38388
H         56.56382        8.24269       -8.51453
H         55.30283        9.82156       -6.24096
H         57.39679        9.71081       -5.08249
H         57.66466       10.43400       -6.69293
N         55.47663        7.70920       -4.53620
C         55.03578        6.54233       -3.79113
C         53.54329        6.26626       -3.86901
O         53.12092        5.32287       -3.21511
H         55.78219        8.52893       -3.99195
H         55.25853        6.71510       -2.71628
H         55.61676        5.65134       -4.11617
N         52.67826        7.02236       -4.61136
C         51.23743        6.78310       -4.64393
C         50.84700        6.28079       -6.01479
O         51.08382        6.96384       -7.00299
C         50.45603        8.06599       -4.28360
C         50.76290        8.51868       -2.85470
O         49.07775        7.81413       -4.39188
H         53.03609        7.79769       -5.18620
H         50.95048        6.00675       -3.90073
H         50.74973        8.86973       -5.00012
H         48.63048        8.69402       -4.50089
H         51.84420        8.73574       -2.73549
H         50.18754        9.44028       -2.62559
H         50.46862        7.72935       -2.12937
N         50.24103        5.06452       -6.13794
C         49.87610        4.48049       -7.42403
C         48.85223        5.31893       -8.18242
O         48.68773        5.08335       -9.36970
C         49.35591        3.01248       -7.26852
C         48.02893        2.95559       -6.45421
C         50.45144        2.11458       -6.65773
C         47.43166        1.55353       -6.33010
H         50.07107        4.52634       -5.27718
H         50.80383        4.45550       -8.03998
H         49.15034        2.61828       -8.28894
H         47.26847        3.58319       -6.96329
H         48.17093        3.35892       -5.43037
H         50.14015        1.05067       -6.65849
H         51.37913        2.17987       -7.26419
H         50.68973        2.40289       -5.61345
H         48.09312        0.88583       -5.74173
H         46.46086        1.61612       -5.79347
H         47.25490        1.11596       -7.33478
N         48.08060        6.25653       -7.55218
C         47.05615        7.03822       -8.24217
C         47.21925        8.52754       -7.97625
O         48.02443        8.91807       -7.14818
C         45.64394        6.54940       -7.82385
C         45.38456        6.66345       -6.31573
O         45.47653        5.20709       -8.19972
H         48.17634        6.38255       -6.53660
H         47.14642        6.89647       -9.34111
H         44.86849        7.16783       -8.33287
H         45.31928        5.19922       -9.18013
H         44.35060        6.32862       -6.08893
H         46.08068        6.01891       -5.73925
H         45.49496        7.71176       -5.97191
N         46.46339        9.42107       -8.67932
C         46.50919       10.87089       -8.47008
C         45.90288       11.24960       -7.11260
O         45.48583       10.36524       -6.37586
C         45.80042       11.61661       -9.64606
C         44.28762       11.35849       -9.75672
O         46.44922       11.34352      -10.86530
H         45.85037        9.03943       -9.41172
H         47.56870       11.20533       -8.49994
H         45.90962       12.70669       -9.48844
H         46.19320       10.43315      -11.16332
H         43.77157       11.66115       -8.82204
H         43.87224       11.96340      -10.59099
H         44.06465       10.29202       -9.96091
N         45.76889       12.55890       -6.74433
C         45.10257       12.99990       -5.52242
C         45.91277       14.01501       -4.71402
O         45.40342       14.46372       -3.69646
C         43.72351       13.59655       -5.89156
C         43.79781       14.87413       -6.75624
C         42.41655       15.48850       -7.03336
C         41.52086       14.60116       -7.91346
N         40.23777       15.25420       -8.17116
H         46.06580       13.28463       -7.40164
H         44.90019       12.12966       -4.85994
H         43.17814       13.83681       -4.95237
H         43.14887       12.81007       -6.42326
H         44.30175       14.67062       -7.72372
H         44.39177       15.63825       -6.21034
H         42.57367       16.45367       -7.56243
H         41.90827       15.70409       -6.06808
H         41.32732       13.62758       -7.41668
H         42.03468       14.40672       -8.88141
H         39.72997       15.41259       -7.27035
H         40.38760       16.16820       -8.65701
H         39.65573       14.63728       -8.78263
N         47.15355       14.44866       -5.09107
C         47.86165       15.50056       -4.36277
C         47.11360       16.81045       -4.49558
O         46.92456       17.27746       -5.61029
C         49.30327       15.65705       -4.89071
C         50.11867       16.78632       -4.22236
C         50.11295       16.80091       -2.70611
O         49.70855       17.79643       -2.12707
O         50.56733       15.76601       -1.96830
H         47.60842       14.03218       -5.91394
H         47.94172       15.20215       -3.29380
H         49.29558       15.84604       -5.98722
H         49.81928       14.69855       -4.74187
H         49.71093       17.75909       -4.57541
H         51.16684       16.71857       -4.58518
N         46.67886       17.46671       -3.38442
C         45.98810       18.73880       -3.42837
H         44.99207       18.63257       -2.95158
H         46.57872       19.49339       -2.86751
H         45.84528       19.10919       -4.46530
H         46.85592       17.05676       -2.45515
Ca        51.11479       13.79315       -2.86794
O         48.72987       12.85709       -1.23781
H         48.85847       12.15677       -1.92567
H         47.75643       13.03606       -1.24544
O         52.03705       14.06450        0.25100
H         52.17900       13.47291        1.03203
H         51.28746       14.65324        0.51904
O         51.71565       11.19721       -1.08579
H         52.41261       10.49695       -1.02229
H         50.95232       10.83532       -0.56914

Ca 1.0



