%chk=apoCaM-CA-Ng.loop2.water3.frame564.chk
%nprocshared=20
%mem=10GB
%nosave
#b3lyp/svp scf=(tight,noincore,xqc) Test 
#IOP(5/87=12) Density=Current Pop=(MK,readradii) iop(6/33=2) iop(6/42=6)

apoCaM-CA-Ng.loop2.water3.frame564 

   -2  1 
C         47.99616       30.29410       79.82815
C         46.64835       30.93316       79.65933
O         46.55079       32.15095       79.71054
H         48.78212       31.06315       79.98654
H         47.97465       29.62862       80.71831
H         48.25192       29.69244       78.93187
N         45.54614       30.15330       79.48598
C         44.19205       30.69253       79.43501
C         43.99405       31.62512       78.24737
O         44.16824       31.20096       77.11531
C         43.16226       29.54361       79.39251
C         41.76197       30.05387       79.59600
O         40.90128       29.85356       78.75475
O         41.44804       30.71944       80.72507
H         45.67776       29.12935       79.45828
H         44.02448       31.24465       80.38648
H         43.37373       28.83319       80.22019
H         43.24436       28.98735       78.43119
N         43.57110       32.90518       78.45102
C         43.28508       33.85818       77.37944
C         44.54602       34.30665       76.66457
O         45.55248       34.48317       77.33652
C         42.62550       35.10956       77.96954
H         43.39214       33.19954       79.42327
H         42.55389       33.40623       76.68047
H         43.29915       35.59353       78.70940
H         42.39431       35.84777       77.17344
H         41.67591       34.83087       78.47111
N         44.56270       34.68629       75.35007
C         43.39850       34.67652       74.46040
C         42.95535       33.27408       74.08254
O         43.61797       32.30580       74.42312
C         43.66026       35.57229       73.22189
C         44.85044       35.19942       72.38334
O         45.22742       35.96033       71.50673
O         45.49947       34.03893       72.56699
H         45.44478       35.09157       74.99748
H         42.55086       35.15732       74.99003
H         43.83843       36.59812       73.60674
H         42.76869       35.61642       72.56032
N         41.80523       33.10757       73.37185
C         41.25895       31.81689       72.99548
C         40.53472       31.15825       74.14515
O         40.55820       31.68238       75.25034
H         41.27320       33.94060       73.08267
H         42.05882       31.15408       72.59547
H         40.50988       31.98785       72.19694
N         39.85983       29.98539       73.99429
C         39.72071       29.23565       72.74854
C         40.62567       28.01238       72.77336
O         40.51229       27.16965       71.89317
C         38.22300       28.92011       72.51760
C         37.46627       30.15192       72.05805
N         36.76240       30.13438       70.89859
O         37.48989       31.17196       72.73085
H         39.44198       29.56222       74.83960
H         40.07652       29.79440       71.85773
H         37.77183       28.52340       73.45288
H         38.11073       28.14095       71.73457
H         36.70754       29.28153       70.32227
H         36.25464       30.97252       70.57720
N         41.66662       27.94101       73.65841
C         42.71786       26.94179       73.61553
C         43.64924       27.07046       72.41829
O         44.60852       26.31235       72.37574
H         41.77002       28.65373       74.39230
H         42.27823       25.92223       73.65271
H         43.35019       27.07364       74.52023
N         43.44664       27.96346       71.39993
C         44.28730       27.97446       70.20481
C         45.67310       28.51875       70.49155
O         45.91153       29.05794       71.56229
C         43.57167       28.65424       69.01322
C         42.33881       27.81990       68.61332
O         43.19751       29.96344       69.35840
H         42.63467       28.59024       71.42043
H         44.44857       26.91576       69.90289
H         44.26163       28.68180       68.14176
H         42.52268       30.28200       68.70340
H         41.86131       28.25190       67.71007
H         42.64075       26.77695       68.37595
H         41.59003       27.79760       69.43191
N         46.67411       28.28486       69.59612
C         48.08488       28.43796       69.92177
C         48.72264       29.51376       69.05657
O         48.74074       29.38250       67.84105
C         48.78095       27.04458       69.76023
C         50.29875       27.12610       70.07191
C         48.08709       25.97732       70.63941
C         51.01334       25.77206       70.04756
H         46.44217       27.84399       68.69288
H         48.20042       28.73593       70.98323
H         48.65930       26.71646       68.70351
H         50.46221       27.57180       71.07391
H         50.77790       27.78101       69.31310
H         46.99539       25.93439       70.44849
H         48.46612       24.96437       70.38663
H         48.25758       26.17190       71.71899
H         50.66495       25.13319       70.88739
H         50.83394       25.24836       69.08554
H         52.10417       25.92316       70.18403
N         49.31634       30.59014       69.65288
C         50.05076       31.63684       68.96315
C         51.54414       31.53066       69.24484
O         52.28402       32.31861       68.67006
C         49.59917       33.02097       69.47370
C         48.11337       33.16340       69.55918
O         47.41324       33.07949       68.56533
O         47.54847       33.37868       70.75841
H         49.27454       30.67428       70.66606
H         49.88224       31.54945       67.86689
H         50.02770       33.82694       68.83871
H         49.99592       33.15964       70.50595
N         52.06718       30.59638       70.10544
C         53.49370       30.46477       70.34961
C         53.83791       30.46307       71.86120
O         54.43272       29.49779       72.32107
C         53.94571       29.16260       69.63575
C         55.33802       29.28955       69.08877
C         55.55123       30.14476       67.99122
C         56.41351       28.56816       69.62165
C         56.82235       30.27988       67.43660
C         57.69203       28.71749       69.07042
C         57.89501       29.57049       67.97895
H         51.46010       29.89761       70.54264
H         54.01867       31.32376       69.88139
H         53.30868       28.96507       68.74331
H         53.79401       28.27933       70.29503
H         54.72413       30.69592       67.55686
H         56.26532       27.90466       70.46397
H         56.97159       30.93373       66.58652
H         58.52659       28.17094       69.48717
H         58.88176       29.68132       67.55015
N         53.51820       31.49828       72.70960
C         53.86123       31.54478       74.14006
C         53.37747       30.35573       74.97192
O         53.95250       30.07923       76.01523
C         53.12122       32.79337       74.64048
C         53.12697       33.68923       73.42537
C         52.84423       32.70765       72.28957
H         54.96649       31.65193       74.21600
H         52.05140       32.53969       74.82718
H         53.54349       33.23902       75.56781
H         52.43000       34.55394       73.47148
H         54.16619       34.06911       73.30897
H         51.76126       32.48394       72.17837
H         53.25807       33.13587       71.35208
N         52.28298       29.65066       74.57594
C         51.69268       28.51545       75.28116
C         52.75296       27.45106       75.45871
O         53.02637       27.06033       76.58547
C         50.46323       27.88478       74.53696
C         49.18971       28.76282       74.39776
C         49.24202       29.77465       73.29940
O         48.24291       30.65283       73.12125
O         50.13683       29.74098       72.48563
H         51.88102       29.95550       73.70596
H         51.33809       28.84675       76.28387
H         50.14750       27.01342       75.15066
H         50.75388       27.48583       73.54071
H         48.94692       29.23661       75.37108
H         48.33435       28.11165       74.11126
N         53.41893       26.96109       74.37789
C         54.47454       25.98194       74.50112
H         55.29788       26.38942       75.12687
H         54.07943       25.05352       74.96321
H         54.88161       25.74051       73.49642
H         53.18640       27.31246       73.43673
Ca        46.52470       32.07801       72.93135
O         44.11989       32.13342       71.06574
H         43.92687       33.03750       70.71331
H         44.58783       31.68093       70.32245
O         46.89915       32.18039       75.56685
H         45.99330       31.78528       75.59167
H         46.94303       32.76968       76.35507
O         44.99222       29.72992       74.09773
H         45.32135       28.80237       74.19986
H         44.08297       29.71757       74.48652

Ca 1.0



