%chk=apoCaM-CA-Ng.loop3.water5.frame437.chk
%nprocshared=20
%mem=10GB
%nosave
#b3lyp/svp scf=(tight,noincore,xqc) Test 
#IOP(5/87=12) Density=Current Pop=(MK,readradii) iop(6/33=2) iop(6/42=6)

apoCaM-CA-Ng.loop3.water5.frame437 

   0  1 
C        103.19687       61.79939       93.51677
C        102.92832       60.41233       94.02437
O        101.83351       60.16399       94.50442
H        104.22975       61.89302       93.11903
H        102.48016       62.05114       92.70827
H        103.07816       62.52514       94.34890
N        103.89655       59.45491       93.95973
C        103.76243       58.09874       94.48041
C        103.59886       58.14235       95.99481
O        102.64569       57.60142       96.53937
C        102.65385       57.32273       93.72676
C        102.61410       55.84843       94.04349
O        103.48236       55.29218       94.91169
O        101.79020       55.13974       93.48821
H        104.80423       59.70280       93.53648
H        104.72294       57.57410       94.27546
H        102.84362       57.41732       92.63530
H        101.65767       57.76036       93.94508
N        104.54021       58.79529       96.73569
C        104.53050       58.87059       98.19997
C        103.36056       59.66924       98.74375
O        103.17070       59.69864       99.95241
C        105.81954       59.54683       98.71440
C        107.07635       58.79857       98.26413
C        108.34529       59.46174       98.80033
C        109.61347       58.81435       98.22142
N        109.69149       57.38068       98.50834
H        105.30657       59.24421       96.21534
H        104.47715       57.83363       98.59856
H        105.80107       59.57566       99.82686
H        105.86099       60.59523       98.33851
H        107.14801       58.78834       97.15911
H        107.00780       57.75315       98.62979
H        108.35187       59.40316       99.91032
H        108.35429       60.53550       98.50707
H        110.49618       59.32867       98.65925
H        109.63862       58.96908       97.11901
H        109.60182       57.21006       99.53578
H        108.94573       56.86128       97.99166
H        110.61366       57.01878       98.17686
N        102.57024       60.39231       97.91478
C        101.48670       61.23728       98.36993
C        100.38971       60.43922       99.05831
O        100.12900       59.30649       98.67675
C        100.90962       61.93625       97.14806
C         99.82942       62.86106       97.52171
O         98.70163       62.62776       97.14575
O        100.05412       63.97639       98.22138
H        102.77721       60.39187       96.90870
H        101.89302       62.00941       99.06218
H        100.50390       61.16491       96.45575
H        101.68930       62.51486       96.60552
N         99.64708       61.02968      100.03686
C         98.54615       60.38033      100.72433
C         97.43918       59.96103       99.78209
O         97.12702       58.77882       99.75631
H         99.87557       61.99551      100.31598
H         98.12186       61.08169      101.47436
H         98.93441       59.49389      101.27268
N         96.79631       60.86685       98.98225
C         95.70316       60.48926       98.08038
C         96.10079       60.63928       96.61809
O         95.30400       61.09662       95.80856
C         94.41013       61.26965       98.43006
C         94.48024       62.77345       98.22037
N         93.39201       63.53627       98.46962
O         95.50200       63.30904       97.81643
H         97.10257       61.84866       99.01449
H         95.47704       59.40935       98.20934
H         94.15252       61.07226       99.49283
H         93.58193       60.87752       97.80058
H         92.51544       63.11036       98.80315
H         93.42449       64.55562       98.32146
N         97.33131       60.23042       96.20846
C         97.81014       60.27389       94.83594
C         97.97901       61.65550       94.21273
O         98.55564       61.69144       93.13442
H         97.97160       59.82695       96.90902
H         97.15811       59.65113       94.18648
H         98.82049       59.80657       94.83329
N         97.51032       62.82113       94.76479
C         97.71943       64.12068       94.14068
C         96.70030       65.16803       94.69568
O         96.96557       65.83068       95.91315
C         99.20990       64.52305       94.23302
C         99.54702       65.84705       93.60213
C         99.33238       66.07245       92.23287
C        100.11585       66.86443       94.38490
C         99.67661       67.30138       91.66016
C        100.45916       68.08970       93.81203
C        100.24042       68.31292       92.44602
O        100.57114       69.49058       91.87983
H         96.94565       62.80242       95.61744
H         97.44546       63.98943       93.07040
H         99.83772       63.75063       93.74143
H         99.50558       64.53111       95.29697
H         98.90471       65.29810       91.60881
H        100.30223       66.70703       95.43959
H         99.50824       67.46634       90.60372
H        100.89904       68.86137       94.43099
H        100.96753       70.21150       92.39003
N         96.36502       66.17837       93.68817
C         95.27788       67.05798       94.16185
C         94.07281       66.24079       94.62881
O         93.67847       66.41401       95.77378
C         94.96658       68.14671       93.10400
C         96.25546       68.91000       92.67093
C         93.91480       69.14301       93.62663
C         97.01217       69.62415       93.80252
H         96.06161       65.70806       92.80435
H         95.63365       67.62115       95.05190
H         94.55341       67.65559       92.19554
H         95.98437       69.66533       91.90277
H         96.96026       68.19799       92.19244
H         93.70331       69.91530       92.85775
H         92.96447       68.63431       93.85939
H         94.25447       69.64206       94.55734
H         97.89956       70.14376       93.38532
H         96.37861       70.38454       94.30181
H         97.38217       68.90127       94.55633
N         93.49450       65.27332       93.85367
C         92.41687       64.43149       94.37769
C         91.13290       65.21580       94.61371
O         90.24801       64.69721       95.27910
C         92.15240       63.22085       93.47248
O         91.71866       63.64075       92.20882
H         93.87351       65.08620       92.91375
H         92.76346       64.02552       95.35644
H         91.37670       62.57326       93.94100
H         93.09771       62.63910       93.37671
H         91.65280       62.81842       91.65712
N         90.97283       66.47723       94.11473
C         89.83278       67.34375       94.37756
C         89.71179       67.60106       95.86999
O         88.64822       67.40313       96.44254
C         88.55256       66.77515       93.74723
H         91.71212       66.87549       93.52466
H         90.03432       68.32209       93.88628
H         88.70687       66.62382       92.65749
H         88.27126       65.80280       94.20145
H         87.71054       67.48542       93.88624
N         90.81245       67.99574       96.57197
C         90.82803       68.17875       98.01585
C         91.48823       69.49382       98.37046
O         92.63132       69.70593       97.98720
C         91.59989       67.02738       98.65842
H         91.70583       68.09620       96.06622
H         89.79768       68.14173       98.43297
H         92.64468       66.99808       98.28997
H         91.60752       67.14264       99.76354
H         91.10679       66.06304       98.40952
N         90.82796       70.41893       99.12359
C         91.39534       71.69605       99.54232
C         91.72498       72.53138       98.31569
O         92.86153       72.94551       98.13098
C         92.59579       71.46074      100.50365
C         93.11226       72.72779      101.21176
C         92.07064       73.33459      102.10928
O         91.55251       72.61639      103.12453
O         91.69801       74.48293      101.93097
H         89.86383       70.21169       99.42575
H         90.60878       72.23322      100.11632
H         93.44034       70.99855       99.95072
H         92.28386       70.74108      101.29244
H         93.46187       73.47601      100.47106
H         93.98409       72.44999      101.84271
N         90.74889       72.79097       97.40421
C         90.99827       73.55752       96.20381
H         91.79012       73.06759       95.59760
H         90.07132       73.61622       95.59472
H         91.31709       74.58693       96.47136
H         89.79929       72.41943       97.55932
Ca        98.51936       65.34978       97.45860
O         96.13007       66.12552      100.89010
H         96.48091       66.12091      101.81576
H         95.41561       65.43965      100.88889
O         98.58543       68.32134       96.84081
H         97.96576       68.74157       97.48744
H         99.43809       68.22770       97.33477
O         98.07015       63.93256      100.59633
H         97.31038       63.44124      100.99805
H         98.64601       64.16977      101.36585
O         95.76183       67.25617       98.15091
H         94.99635       66.62952       98.13508
H         95.52498       67.92309       98.84267
O         99.47516       66.87549      100.05062
H         99.11436       67.79068       99.93884
H         99.35391       66.67737      101.01294

Ca 1.0



