%chk=apoCaM-CA-Ng.loop3.water5.frame131.chk
%nprocshared=20
%mem=10GB
%nosave
#b3lyp/svp scf=(tight,noincore,xqc) Test 
#IOP(5/87=12) Density=Current Pop=(MK,readradii) iop(6/33=2) iop(6/42=6)

apoCaM-CA-Ng.loop3.water5.frame131 

   0  1 
C         65.02958       48.04593       17.02197
C         66.25559       47.18742       17.12476
O         66.52754       46.67120       18.19824
H         64.12937       47.44817       17.27025
H         65.11491       48.89522       17.73228
H         64.91149       48.46201       15.99870
N         67.06419       47.01366       16.04213
C         68.31477       46.26671       16.05954
C         69.28230       46.90804       17.04260
O         69.88533       46.22586       17.85950
C         68.05017       44.75785       16.28201
C         69.29851       43.92273       16.20257
O         69.97670       43.91889       15.18772
O         69.66490       43.16058       17.25119
H         66.80962       47.47644       15.15570
H         68.77480       46.37736       15.05144
H         67.35132       44.40376       15.49323
H         67.56744       44.59103       17.26725
N         69.46400       48.25841       16.99562
C         70.44357       48.98778       17.78999
C         69.75903       49.51134       19.06121
O         69.68751       50.71680       19.25789
C         70.99625       50.13553       16.88093
C         72.48860       50.47627       17.00872
C         73.35526       49.38021       16.34556
C         74.83731       49.75598       16.17349
N         75.02569       50.89372       15.26602
H         68.90599       48.79515       16.31296
H         71.27062       48.29663       18.06000
H         70.37131       51.04607       17.00276
H         70.86187       49.87041       15.80868
H         72.78602       50.67279       18.06114
H         72.62356       51.41171       16.42934
H         72.96282       49.16008       15.32712
H         73.28747       48.44688       16.94176
H         75.35358       48.87340       15.73242
H         75.30162       49.97109       17.15898
H         74.65825       51.77539       15.68705
H         76.04795       51.02450       15.09070
H         74.55417       50.71321       14.34912
N         69.17283       48.64608       19.94521
C         68.32975       49.07726       21.06065
C         68.90992       48.63416       22.39339
O         69.33283       47.49359       22.52094
C         66.91261       48.51063       20.87180
C         65.95776       49.10574       21.86947
O         65.33684       48.32287       22.76392
O         65.74363       50.30768       21.87410
H         69.26659       47.63269       19.79098
H         68.22865       50.18476       21.06168
H         66.93292       47.40129       20.96008
H         66.53951       48.77259       19.85887
N         68.93788       49.50250       23.44394
C         69.57539       49.21703       24.71830
C         69.06314       47.99777       25.46166
O         69.86237       47.41983       26.18492
H         68.52823       50.44179       23.32416
H         69.48736       50.10076       25.38734
H         70.66100       49.07095       24.52950
N         67.76612       47.56919       25.39927
C         67.29512       46.39465       26.14425
C         66.71346       45.30749       25.24398
O         66.26407       44.30034       25.77445
C         66.30653       46.81130       27.25429
C         64.96884       47.31312       26.79311
N         64.05614       47.69606       27.71168
O         64.69276       47.35964       25.60633
H         67.09389       48.09681       24.82378
H         68.14160       45.92231       26.68699
H         66.78692       47.59546       27.87908
H         66.11280       45.93099       27.90565
H         64.27119       47.64746       28.71820
H         63.13579       48.04133       27.41922
N         66.71404       45.41045       23.88273
C         66.19553       44.36498       23.01814
C         64.69297       44.25941       23.10368
O         64.18585       43.20825       23.46823
H         67.13888       46.22811       23.42630
H         66.68569       43.39867       23.27139
H         66.44670       44.60288       21.96175
N         63.91949       45.31621       22.72589
C         62.46438       45.28961       22.67140
C         61.87784       46.36883       23.61937
O         62.01856       47.62539       23.01048
C         62.02763       45.54781       21.20659
C         62.47875       44.45851       20.27012
C         63.52251       44.68325       19.35468
C         61.84008       43.21027       20.29250
C         63.92227       43.66900       18.47922
C         62.22975       42.20336       19.40573
C         63.27413       42.42891       18.49664
O         63.65858       41.46542       17.63564
H         64.39136       46.17249       22.41183
H         62.08666       44.29895       23.00511
H         62.47482       46.51352       20.87908
H         60.92472       45.65639       21.12008
H         64.03335       45.63792       19.32370
H         61.02690       43.02609       20.98361
H         64.73256       43.84928       17.78321
H         61.71633       41.25059       19.42421
H         63.22696       40.59947       17.60787
N         60.45181       46.11126       23.86926
C         59.84827       47.01954       24.86666
C         60.26399       46.64063       26.29021
O         60.86491       47.46877       26.95447
C         58.30424       47.03607       24.68477
C         57.88646       47.26310       23.20435
C         57.63986       48.09229       25.58827
C         58.36463       48.58246       22.58653
H         60.29095       45.11485       24.14248
H         60.19886       48.05691       24.66897
H         57.90536       46.03791       24.97184
H         56.77787       47.22347       23.13498
H         58.27887       46.43139       22.58034
H         58.00679       49.11291       25.35897
H         56.53686       48.06442       25.46209
H         57.85668       47.90916       26.65074
H         57.95572       49.45673       23.13153
H         59.47147       48.63921       22.57371
H         58.01260       48.64285       21.53600
N         59.99988       45.40648       26.81878
C         60.48825       44.98269       28.13655
C         59.88239       45.74404       29.31490
O         60.39612       45.60278       30.41525
C         60.23249       43.47912       28.34056
O         58.85112       43.22509       28.33161
H         59.50117       44.71993       26.23314
H         61.58962       45.14627       28.14722
H         60.66156       43.13956       29.30899
H         60.73910       42.92296       27.51765
H         58.73001       42.29564       28.00656
N         58.77768       46.53011       29.17398
C         58.12090       47.25523       30.26037
C         59.02686       48.30216       30.90107
O         58.87418       48.58165       32.08431
C         57.53181       46.27452       31.28875
H         58.34333       46.59912       28.24991
H         57.26038       47.80617       29.82000
H         56.94154       46.82207       32.05386
H         56.85432       45.55622       30.77983
H         58.32768       45.70211       31.80836
N         59.98974       48.93188       30.17204
C         60.89844       49.93736       30.71121
C         60.85737       51.19001       29.86621
O         60.82885       51.08156       28.64903
C         62.32115       49.38836       30.71150
H         60.11400       48.66415       29.18373
H         60.66045       50.18691       31.76966
H         63.01598       50.14655       31.13512
H         62.37145       48.47714       31.34446
H         62.64423       49.13876       29.68186
N         60.89694       52.42260       30.44337
C         60.89602       53.67587       29.69502
C         59.61710       53.77489       28.88201
O         59.66920       53.95972       27.67340
C         62.16344       53.82616       28.80787
C         63.47226       53.70334       29.60075
C         64.66125       53.87850       28.69644
O         65.55003       52.87750       28.54640
O         64.83091       54.92904       28.09762
H         60.93346       52.48599       31.47296
H         60.90046       54.51353       30.42766
H         62.13160       54.82466       28.31723
H         62.16840       53.05797       28.00668
H         63.52555       52.69785       30.07131
H         63.50977       54.47322       30.40049
N         58.41624       53.61698       29.50459
C         57.14741       53.63403       28.80672
H         56.50103       54.42579       29.23694
H         57.26314       53.82313       27.71882
H         56.65009       52.64963       28.93633
H         58.39703       53.44641       30.52121
Ca        63.04687       49.10679       24.37668
O         62.53104       49.83452       21.03249
H         61.83860       49.26666       20.60978
H         63.19920       49.98522       20.31761
O         63.76482       52.39515       24.08480
H         63.21015       53.00935       23.54159
H         64.43263       52.98268       24.52008
O         65.86880       50.43320       25.25979
H         66.37751       51.19250       24.87932
H         65.71998       50.68099       26.20652
O         60.71292       50.81845       23.75601
H         60.77456       51.56188       23.10543
H         60.41416       51.24466       24.59801
O         62.61972       50.76205       26.60395
H         61.93617       50.04462       26.58787
H         63.27456       50.46665       27.28463

Ca 1.0



