%chk=apoCaM-CA-Ng.loop1.water1.frame875.chk
%nprocshared=20
%mem=10GB
%nosave
#b3lyp/svp scf=(tight,noincore,xqc) Test 
#IOP(5/87=12) Density=Current Pop=(MK,readradii) iop(6/33=2) iop(6/42=6)

apoCaM-CA-Ng.loop1.water1.frame875 

   0  1 
C         16.14475       -1.32885       26.48523
C         15.64812       -0.08546       27.15641
O         14.51595        0.30547       26.90904
H         17.18051       -1.57383       26.80150
H         15.48185       -2.17790       26.75126
H         16.13515       -1.18303       25.38512
N         16.44310        0.59290       28.03005
C         16.00101        1.80057       28.72166
C         15.59839        2.91031       27.74655
O         15.89066        2.83264       26.56190
C         17.04668        2.25187       29.76551
C         18.40604        2.50900       29.18098
O         18.61290        2.39640       27.85595
O         19.31828        2.87499       29.90540
H         17.38167        0.21365       28.22803
H         15.08078        1.53016       29.28465
H         17.15248        1.45040       30.52763
H         16.69274        3.17249       30.27948
N         14.76027        3.89024       28.18125
C         14.02722        4.77757       27.27672
C         14.84126        5.81697       26.52426
O         14.25389        6.40419       25.62491
C         12.85436        5.47227       28.01862
C         13.30631        6.35554       29.19892
C         12.10720        6.96543       29.93456
C         12.55782        7.60372       31.25696
N         11.42662        8.18522       31.97710
H         14.49569        3.85760       29.17465
H         13.56202        4.12511       26.50223
H         12.18134        4.67853       28.41164
H         12.26208        6.08302       27.30069
H         13.98399        7.16604       28.85236
H         13.85923        5.73314       29.92751
H         11.37534        6.16411       30.17792
H         11.61026        7.71533       29.28044
H         13.32063        8.38991       31.06544
H         13.02064        6.81493       31.89343
H         11.02778        8.98181       31.43015
H         10.68907        7.46147       32.14045
H         11.75942        8.53947       32.90307
N         16.13326        6.15816       26.82033
C         16.77287        7.28412       26.13179
C         17.38950        6.88047       24.79192
O         17.76587        5.72644       24.65678
C         17.67546        8.13127       27.05803
C         19.02623        7.64033       27.52219
O         19.70844        8.42494       28.16089
O         19.56604        6.43715       27.25246
H         16.60203        5.71672       27.62355
H         15.96293        8.00906       25.91691
H         17.08010        8.41181       27.95418
H         17.90277        9.07180       26.52337
N         17.53356        7.73412       23.72787
C         17.07570        9.11568       23.67419
C         15.56512        9.23658       23.66351
O         14.86897        8.23313       23.61369
H         18.00681        7.37461       22.88366
H         17.44622        9.58950       22.73982
H         17.50797        9.68917       24.51240
N         14.99530       10.47242       23.71751
C         13.55419       10.70985       23.75624
C         13.14763       11.57143       22.58018
O         13.73703       12.62664       22.38518
C         13.12926       11.34931       25.09698
C         13.72546       12.70382       25.38301
O         12.99683       13.67554       25.50569
O         15.05337       12.84973       25.54910
H         15.62488       11.28775       23.75004
H         12.99699        9.74885       23.70066
H         13.39930       10.66304       25.92830
H         12.01980       11.44225       25.08686
N         12.13547       11.18919       21.74764
C         11.77749       11.97066       20.57542
C         12.86120       11.91666       19.51981
O         12.81588       12.71588       18.59424
H         11.60021       10.33145       21.94914
H         11.59481       13.02045       20.89242
H         10.84088       11.58428       20.11878
N         13.82593       10.95239       19.55274
C         14.89827       10.83196       18.57487
C         16.23848       10.69751       19.28274
O         16.25777       10.52607       20.49663
C         14.62843        9.60591       17.65532
C         14.46699        8.27446       18.41740
O         13.49514        9.83797       16.85476
H         13.78300       10.22938       20.28630
H         14.94230       11.74108       17.93529
H         15.49089        9.48942       16.96507
H         12.69734        9.85523       17.44562
H         13.58366        8.30078       19.09107
H         14.30694        7.44553       17.69614
H         15.37025        8.04875       19.02094
N         17.40779       10.74338       18.57895
C         18.70978       10.44970       19.17887
C         19.64197       11.66232       19.24124
O         20.71082       11.52633       19.81348
C         19.33655        9.21831       18.44059
C         20.54005        8.56304       19.16818
C         19.75522        9.56475       16.99658
C         20.19372        8.01776       20.55635
H         17.35692       10.95357       17.57076
H         18.54350       10.16037       20.23386
H         18.54819        8.43365       18.38248
H         21.39919        9.25950       19.24489
H         20.87702        7.69382       18.56097
H         18.90367        9.93940       16.39627
H         20.55864       10.33207       16.99190
H         20.13707        8.65836       16.48012
H         21.07476        7.48678       20.97331
H         19.93092        8.82867       21.26388
H         19.34939        7.29877       20.48706
N         19.30323       12.88217       18.71897
C         20.17267       14.06012       18.82586
C         20.58985       14.53328       17.43963
O         20.08068       14.02842       16.45077
C         19.43070       15.14248       19.66266
C         20.24879       16.39495       19.99662
O         18.25095       15.54309       19.01214
H         18.39857       12.99678       18.24315
H         21.10817       13.79454       19.36311
H         19.19326       14.67975       20.65103
H         17.50944       14.99430       19.37784
H         19.67531       17.03941       20.69514
H         21.20754       16.11730       20.48553
H         20.43989       17.00942       19.09440
N         21.55400       15.49155       17.30560
C         22.01638       16.00462       16.02577
C         23.50476       15.73971       15.91112
O         23.89185       14.96563       15.04458
C         21.62159       17.49946       15.89368
C         22.11620       18.12554       14.58842
O         22.10275       18.24859       16.98096
H         22.00678       15.86559       18.14849
H         21.51410       15.46854       15.18951
H         20.50486       17.52416       15.89328
H         21.41963       18.93619       17.19583
H         23.22667       18.13309       14.55343
H         21.72551       17.56119       13.71621
H         21.75805       19.17499       14.52223
N         24.40016       16.34481       16.74338
C         25.83038       16.07815       16.70193
C         26.37370       15.82223       18.09629
O         25.72485       16.16324       19.07773
C         26.56659       17.20826       15.95130
C         26.36271       18.61900       16.53553
C         27.02678       19.66627       15.62708
C         26.81780       21.09544       16.14557
N         27.43534       22.06953       15.24380
H         24.06391       17.03409       17.42914
H         26.01145       15.14790       16.11933
H         26.17187       17.21227       14.91079
H         27.65323       16.97809       15.90165
H         26.79158       18.67122       17.55955
H         25.27702       18.85053       16.58809
H         26.58288       19.59361       14.60908
H         28.11633       19.45775       15.55576
H         27.26700       21.19414       17.15829
H         25.72821       21.31020       16.22064
H         28.46380       21.89323       15.17130
H         27.00133       22.00684       14.29378
H         27.28306       23.03332       15.61943
N         27.55964       15.17236       18.25303
C         28.14054       14.87318       19.55635
C         27.19041       14.05725       20.43951
O         26.92514       14.51685       21.54113
C         29.53104       14.21648       19.39387
C         30.25397       14.04063       20.73815
C         31.65742       13.54697       20.53276
O         32.69996       14.29785       20.93774
O         31.86202       12.46771       20.00038
H         28.06625       14.87266       17.40456
H         28.32905       15.84490       20.06788
H         30.14744       14.89224       18.76048
H         29.46806       13.24250       18.87342
H         29.70440       13.32180       21.38323
H         30.29696       15.02177       21.25923
N         26.60319       12.87688       20.07919
C         26.73715       12.23040       18.79219
H         26.36550       12.89359       17.98536
H         27.78131       11.92847       18.60214
H         26.11770       11.30762       18.77652
H         25.97958       12.42011       20.76407
Ca        18.77873        4.38677       26.89248
O         17.45687        2.00493       24.16581
H         17.64495        1.36404       23.43532
H         16.49768        2.22549       24.05781

Ca 1.0



